/*---------------------------------------------------------------------------*\
  =========                 |
  \\      /  F ield         | OpenFOAM: The Open Source CFD Toolbox
   \\    /   O peration     | Website:  https://openfoam.org
    \\  /    A nd           | Version:  10
     \\/     M anipulation  |
\*---------------------------------------------------------------------------*/
Build  : 10-c4cf895ad8fa
Exec   : blockMesh
Date   : Apr 30 2025
Time   : 10:08:42
Host   : "flint-hp"
PID    : 9674
I/O    : uncollated
Case   : /home/tomflint/OpenFOAM/custom/LaserbeamFoam/tutorials/laserbeamFoam/Test_Refine
nProcs : 1
sigFpe : Enabling floating point exception trapping (FOAM_SIGFPE).
fileModificationChecking : Monitoring run-time modified files using timeStampMaster (fileModificationSkew 10)
allowSystemOperations : Allowing user-supplied system call operations

// * * * * * * * * * * * * * * * * * * * * * * * * * * * * * * * * * * * * * //
Create time

Reading "blockMeshDict"

Creating block mesh from
    "system/blockMeshDict"
Creating block edges
No non-planar block faces defined
Creating topology blocks
Creating topology patches

Creating block mesh topology

Check topology

	Basic statistics
		Number of internal faces : 0
		Number of boundary faces : 6
		Number of defined boundary faces : 6
		Number of undefined boundary faces : 0
	Checking patch -> block consistency

Creating block offsets
Creating merge list .

Creating polyMesh from blockMesh
Creating patches
Creating cells
Creating points with scale 0.001
    Block 0 cell size :
        i : 0.0005
        j : 0.0005
        k : 0.0005

Writing polyMesh
----------------
Mesh Information
----------------
  boundingBox: (-0.0025 0 0) (0.0025 0.0025 0.005)
  nPoints: 726
  nCells: 500
  nFaces: 1700
  nInternalFaces: 1300
----------------
Patches
----------------
  patch 0 (start: 1300 size: 100) name: lowerWall
  patch 1 (start: 1400 size: 100) name: atmosphere
  patch 2 (start: 1500 size: 50) name: rightWall
  patch 3 (start: 1550 size: 50) name: leftWall
  patch 4 (start: 1600 size: 100) name: frontAndBack
  patch 5 (start: 1700 size: 0) name: internal

End

