/*---------------------------------------------------------------------------*\
  =========                 |
  \\      /  F ield         | OpenFOAM: The Open Source CFD Toolbox
   \\    /   O peration     | Website:  https://openfoam.org
    \\  /    A nd           | Version:  10
     \\/     M anipulation  |
\*---------------------------------------------------------------------------*/
Build  : 10-c4cf895ad8fa
Exec   : laserbeamFoam
Date   : Apr 30 2025
Time   : 10:08:43
Host   : "flint-hp"
PID    : 9676
I/O    : uncollated
Case   : /home/tomflint/OpenFOAM/custom/LaserbeamFoam/tutorials/laserbeamFoam/Test_Refine
nProcs : 1
sigFpe : Enabling floating point exception trapping (FOAM_SIGFPE).
fileModificationChecking : Monitoring run-time modified files using timeStampMaster (fileModificationSkew 10)
allowSystemOperations : Allowing user-supplied system call operations

// * * * * * * * * * * * * * * * * * * * * * * * * * * * * * * * * * * * * * //
Create time

Create mesh for time = 0

Selecting fvMeshTopoChanger refiner

PIMPLE: No convergence criteria found


PIMPLE: Operating solver in transient mode with 1 outer corrector
PIMPLE: Operating solver in PISO mode


Reading field p_rgh

Reading field U

Reading field Temperature

Reading/calculating face flux field phi

Reading phaseProperties

Selecting viscosity model constant
Selecting viscosity model constant
No phase change: phaseChangeProperties not found
Selecting phaseChange model none

Reading g

Reading hRef
Calculating field g.h

Selecting turbulence model type laminar
Selecting laminar stress model Stokes
No MRF models present

No fvModels present
No fvConstraints present
DICPCG:  Solving for pcorr, Initial residual = 0, Final residual = 0, No Iterations 0
time step continuity errors : sum local = 0, global = 0, cumulative = 0
Constructing face velocity Uf

Courant Number mean: 0 max: 0

Starting time loop

Courant Number mean: 0 max: 0
Interface Courant Number mean: 0 max: 0
deltaT = 1.111111111e-05
Time = 1.111111111e-05s

smoothSolver:  Solving for alpha.metal, Initial residual = 0, Final residual = 0, No Iterations 0
Phase-1 volume fraction = 0.6  Min(alpha.metal) = 0  Max(alpha.metal) = 1
MULES: Correcting alpha.metal
MULES: Correcting alpha.metal
Phase-1 volume fraction = 0.6  Min(alpha.metal) = 0  Max(alpha.metal) = 1
Laser mean position = (0 0 6.666666667e-06)
Laser power = 2000
Laser position including any oscillation = (0 0 6.666666667e-06)
Calculating laser beam rays
Total Q deposited this timestep:: 0
smoothSolver:  Solving for T, Initial residual = 0.9255349567, Final residual = 0.9072091677, No Iterations 1000
Correcting epsilon1, mean residual = 0, max residual = 0
DICPCG:  Solving for p_rgh, Initial residual = 0.07004834219, Final residual = 0.002618416403, No Iterations 2
time step continuity errors : sum local = 5.005596211e-21, global = -5.724884902e-22, cumulative = -5.724884902e-22
DICPCG:  Solving for p_rgh, Initial residual = 0.002443275182, Final residual = 5.51054765e-05, No Iterations 3
time step continuity errors : sum local = 1.130183393e-22, global = -2.781405139e-23, cumulative = -6.003025416e-22
DICPCG:  Solving for p_rgh, Initial residual = 5.615551852e-05, Final residual = 2.047449933e-08, No Iterations 6
time step continuity errors : sum local = 4.188614726e-26, global = -7.809449304e-27, cumulative = -6.00310351e-22
ExecutionTime = 0.018979 s  ClockTime = 0 s

Courant Number mean: 7.356981754e-26 max: 4.942514899e-25
Interface Courant Number mean: 0 max: 0
deltaT = 1.26984127e-05
Selected 500 cells for refinement out of 500.
Refined from 500 to 4000 cells.
Selected 0 split points out of a possible 500.
Time = 2.380952381e-05s

DICPCG:  Solving for pcorr, Initial residual = 2.706177517e-08, Final residual = 2.706177517e-08, No Iterations 0
time step continuity errors : sum local = 5.49826558e-26, global = -1.206927912e-26, cumulative = -6.003224203e-22
smoothSolver:  Solving for alpha.metal, Initial residual = 3.739997332e-27, Final residual = 3.739997332e-27, No Iterations 0
Phase-1 volume fraction = 0.6  Min(alpha.metal) = 0  Max(alpha.metal) = 1
MULES: Correcting alpha.metal
MULES: Correcting alpha.metal
Phase-1 volume fraction = 0.6  Min(alpha.metal) = 0  Max(alpha.metal) = 1
Laser mean position = (0 0 1.428571429e-05)
Laser power = 2000
Laser position including any oscillation = (0 0 1.428571429e-05)
Calculating laser beam rays
Total Q deposited this timestep:: 91.58321752
smoothSolver:  Solving for T, Initial residual = 1, Final residual = 4.060827931e-11, No Iterations 3
Correcting epsilon1, mean residual = 0, max residual = 0
DICPCG:  Solving for p_rgh, Initial residual = 0.7247813785, Final residual = 0.01767799909, No Iterations 2
time step continuity errors : sum local = 1.390157437e-19, global = -3.22727903e-21, cumulative = -3.82760145e-21
DICPCG:  Solving for p_rgh, Initial residual = 0.01037540629, Final residual = 0.0003208003127, No Iterations 5
time step continuity errors : sum local = 4.318334678e-21, global = -4.315256305e-22, cumulative = -4.259127081e-21
DICPCG:  Solving for p_rgh, Initial residual = 0.0003378994885, Final residual = 9.659886665e-08, No Iterations 12
time step continuity errors : sum local = 1.309625465e-24, global = -3.489261551e-25, cumulative = -4.259476007e-21
ExecutionTime = 0.054417 s  ClockTime = 0 s

Courant Number mean: 1.331925099e-23 max: 1.316290982e-22
Interface Courant Number mean: 0 max: 0
deltaT = 1.523809524e-05
Selected 2436 cells for refinement out of 4000.
Refined from 4000 to 21052 cells.
Selected 100 split points out of a possible 2536.
Unrefined from 21052 to 20352 cells.
Time = 3.904761905e-05s

DICPCG:  Solving for pcorr, Initial residual = 4.626871208e-06, Final residual = 4.626871208e-06, No Iterations 0
time step continuity errors : sum local = 1.128080485e-23, global = -6.128396148e-25, cumulative = -4.260088847e-21
smoothSolver:  Solving for alpha.metal, Initial residual = 5.213060417e-25, Final residual = 5.213060417e-25, No Iterations 0
Phase-1 volume fraction = 0.6  Min(alpha.metal) = 0  Max(alpha.metal) = 1
MULES: Correcting alpha.metal
MULES: Correcting alpha.metal
Phase-1 volume fraction = 0.6  Min(alpha.metal) = 0  Max(alpha.metal) = 1
Laser mean position = (0 0 2.342857143e-05)
Laser power = 2000
Laser position including any oscillation = (0 0 2.342857143e-05)
Calculating laser beam rays
Total Q deposited this timestep:: 188.6453328
smoothSolver:  Solving for T, Initial residual = 0.320080854, Final residual = 1.173412436e-10, No Iterations 4
Correcting epsilon1, mean residual = 0, max residual = 0
DICPCG:  Solving for p_rgh, Initial residual = 0.9999995936, Final residual = 0.04880973319, No Iterations 5
time step continuity errors : sum local = 1.224863926e-12, global = -4.53007501e-13, cumulative = -4.530075053e-13
DICPCG:  Solving for p_rgh, Initial residual = 0.02374714569, Final residual = 0.0008072630784, No Iterations 13
time step continuity errors : sum local = 4.388876865e-14, global = -1.170701839e-14, cumulative = -4.647145236e-13
DICPCG:  Solving for p_rgh, Initial residual = 0.002092786688, Final residual = 9.595810977e-08, No Iterations 32
time step continuity errors : sum local = 5.733433442e-18, global = 4.556051604e-19, cumulative = -4.64714068e-13
ExecutionTime = 0.284865 s  ClockTime = 0 s

Courant Number mean: 7.090614708e-12 max: 3.95996984e-09
Interface Courant Number mean: 0 max: 0
deltaT = 1.523809524e-05
Selected 9822 cells for refinement out of 20352.
Refined from 20352 to 89106 cells.
Selected 774 split points out of a possible 10616.
Unrefined from 89106 to 83688 cells.
Time = 5.428571429e-05s

DICPCG:  Solving for pcorr, Initial residual = 0.9999993002, Final residual = 9.891817147e-06, No Iterations 37
time step continuity errors : sum local = 3.446521186e-17, global = -5.547423886e-18, cumulative = -4.647196155e-13
smoothSolver:  Solving for alpha.metal, Initial residual = 5.79957216e-19, Final residual = 5.79957216e-19, No Iterations 0
Phase-1 volume fraction = 0.6  Min(alpha.metal) = 0  Max(alpha.metal) = 1
MULES: Correcting alpha.metal
MULES: Correcting alpha.metal
Phase-1 volume fraction = 0.6  Min(alpha.metal) = 0  Max(alpha.metal) = 1
Laser mean position = (0 0 3.257142857e-05)
Laser power = 2000
Laser position including any oscillation = (0 0 3.257142857e-05)
Calculating laser beam rays
Total Q deposited this timestep:: 250.504804
smoothSolver:  Solving for T, Initial residual = 0.09558322145, Final residual = 4.455818842e-10, No Iterations 7
Correcting epsilon1, mean residual = 6.994405055e-18, max residual = 3.330669074e-16
DICPCG:  Solving for p_rgh, Initial residual = 0.7101396902, Final residual = 0.0328418797, No Iterations 7
time step continuity errors : sum local = 1.007325138e-11, global = -1.097774881e-12, cumulative = -1.562494496e-12
DICPCG:  Solving for p_rgh, Initial residual = 0.02194091502, Final residual = 0.001024901624, No Iterations 19
time step continuity errors : sum local = 5.550247785e-13, global = -1.435173124e-13, cumulative = -1.706011809e-12
DICPCG:  Solving for p_rgh, Initial residual = 0.005575197135, Final residual = 8.790969245e-08, No Iterations 56
time step continuity errors : sum local = 5.032911245e-17, global = 4.004332223e-18, cumulative = -1.706007804e-12
ExecutionTime = 1.477696 s  ClockTime = 1 s

Courant Number mean: 2.789373866e-11 max: 5.091126491e-08
Interface Courant Number mean: 0 max: 0
deltaT = 1.523809524e-05
Selected 0 cells for refinement out of 83688.
Selected 3280 split points out of a possible 10030.
Unrefined from 83688 to 60728 cells.
Time = 6.952380952e-05s

DICPCG:  Solving for pcorr, Initial residual = 0.9999918282, Final residual = 8.484014849e-06, No Iterations 44
time step continuity errors : sum local = 2.531237879e-18, global = 4.522562374e-19, cumulative = -1.706007352e-12
smoothSolver:  Solving for alpha.metal, Initial residual = 4.672541538e-19, Final residual = 4.672541538e-19, No Iterations 0
Phase-1 volume fraction = 0.6  Min(alpha.metal) = 0  Max(alpha.metal) = 1
MULES: Correcting alpha.metal
MULES: Correcting alpha.metal
Phase-1 volume fraction = 0.6  Min(alpha.metal) = 0  Max(alpha.metal) = 1
Laser mean position = (0 0 4.171428571e-05)
Laser power = 2000
Laser position including any oscillation = (0 0 4.171428571e-05)
Calculating laser beam rays
Total Q deposited this timestep:: 258.5395845
smoothSolver:  Solving for T, Initial residual = 0.03893378564, Final residual = 7.227509806e-10, No Iterations 6
Correcting epsilon1, mean residual = 4.399258735e-18, max residual = 4.440892099e-16
DICPCG:  Solving for p_rgh, Initial residual = 0.3289899438, Final residual = 0.01520305721, No Iterations 6
time step continuity errors : sum local = 8.244680296e-12, global = -1.245084522e-12, cumulative = -2.951091874e-12
DICPCG:  Solving for p_rgh, Initial residual = 0.01649836567, Final residual = 0.00069632669, No Iterations 17
time step continuity errors : sum local = 4.266202115e-13, global = -1.085929128e-13, cumulative = -3.059684787e-12
DICPCG:  Solving for p_rgh, Initial residual = 0.004227488363, Final residual = 9.376639248e-08, No Iterations 47
time step continuity errors : sum local = 6.018169346e-17, global = 8.583990364e-18, cumulative = -3.059676203e-12
ExecutionTime = 2.33444 s  ClockTime = 2 s

Courant Number mean: 5.156095514e-11 max: 7.598275856e-08
Interface Courant Number mean: 0 max: 0
deltaT = 1.523809524e-05
Selected 0 cells for refinement out of 60728.
Selected 0 split points out of a possible 7568.
Time = 8.476190476e-05s

smoothSolver:  Solving for alpha.metal, Initial residual = 1.714266211e-17, Final residual = 1.714266211e-17, No Iterations 0
Phase-1 volume fraction = 0.6  Min(alpha.metal) = 0  Max(alpha.metal) = 1
MULES: Correcting alpha.metal
MULES: Correcting alpha.metal
Phase-1 volume fraction = 0.6  Min(alpha.metal) = 0  Max(alpha.metal) = 1
Laser mean position = (0 0 5.085714286e-05)
Laser power = 2000
Laser position including any oscillation = (0 0 5.085714286e-05)
Calculating laser beam rays
Total Q deposited this timestep:: 266.7220639
smoothSolver:  Solving for T, Initial residual = 0.02597246168, Final residual = 5.562913023e-10, No Iterations 6
Correcting epsilon1, mean residual = 0, max residual = 0
DICPCG:  Solving for p_rgh, Initial residual = 0.1723708263, Final residual = 0.007350601277, No Iterations 10
time step continuity errors : sum local = 5.243598075e-12, global = -1.300706327e-12, cumulative = -4.360382529e-12
DICPCG:  Solving for p_rgh, Initial residual = 0.008206160883, Final residual = 0.0003419198053, No Iterations 17
time step continuity errors : sum local = 3.088652193e-13, global = -8.926664169e-14, cumulative = -4.449649171e-12
DICPCG:  Solving for p_rgh, Initial residual = 0.00234164769, Final residual = 9.591985502e-08, No Iterations 43
time step continuity errors : sum local = 8.870980346e-17, global = 9.451726677e-18, cumulative = -4.449639719e-12
ExecutionTime = 2.734901 s  ClockTime = 2 s

Courant Number mean: 8.825890437e-11 max: 1.617901185e-07
Interface Courant Number mean: 0 max: 0
deltaT = 1.523809524e-05
Selected 8 cells for refinement out of 60728.
Refined from 60728 to 60784 cells.
Selected 0 split points out of a possible 7576.
Time = 0.0001s

DICPCG:  Solving for pcorr, Initial residual = 0.9998137756, Final residual = 7.203906569e-06, No Iterations 46
time step continuity errors : sum local = 9.431531998e-20, global = 5.54918164e-21, cumulative = -4.449639714e-12
smoothSolver:  Solving for alpha.metal, Initial residual = 5.721036296e-19, Final residual = 5.721036296e-19, No Iterations 0
Phase-1 volume fraction = 0.6  Min(alpha.metal) = 0  Max(alpha.metal) = 1
MULES: Correcting alpha.metal
MULES: Correcting alpha.metal
Phase-1 volume fraction = 0.6  Min(alpha.metal) = 0  Max(alpha.metal) = 1
Laser mean position = (0 0 6e-05)
Laser power = 2000
Laser position including any oscillation = (0 0 6e-05)
Calculating laser beam rays
Total Q deposited this timestep:: 274.7955107
Writing rays to "/home/tomflint/OpenFOAM/custom/LaserbeamFoam/tutorials/laserbeamFoam/Test_Refine/VTKs/rays_7.vtk"
smoothSolver:  Solving for T, Initial residual = 0.01938807755, Final residual = 4.608104292e-10, No Iterations 6
Correcting epsilon1, mean residual = 0, max residual = 0
DICPCG:  Solving for p_rgh, Initial residual = 0.1233830514, Final residual = 0.005524712062, No Iterations 12
time step continuity errors : sum local = 5.790907514e-12, global = -1.220712227e-12, cumulative = -5.670351941e-12
DICPCG:  Solving for p_rgh, Initial residual = 0.005898254833, Final residual = 0.0002947436449, No Iterations 14
time step continuity errors : sum local = 3.856840732e-13, global = -1.498192574e-13, cumulative = -5.820171198e-12
DICPCG:  Solving for p_rgh, Initial residual = 0.001478681864, Final residual = 8.463813689e-08, No Iterations 40
time step continuity errors : sum local = 1.121599093e-16, global = -1.726269124e-17, cumulative = -5.820188461e-12
ExecutionTime = 4.266708 s  ClockTime = 4 s

Courant Number mean: 1.302187423e-10 max: 2.529805121e-07
Interface Courant Number mean: 0 max: 0
deltaT = 1.666666667e-05
Selected 0 cells for refinement out of 60784.
Selected 0 split points out of a possible 7576.
Time = 0.0001166666667s

smoothSolver:  Solving for alpha.metal, Initial residual = 2.486807279e-18, Final residual = 2.486807279e-18, No Iterations 0
Phase-1 volume fraction = 0.6  Min(alpha.metal) = 0  Max(alpha.metal) = 1
MULES: Correcting alpha.metal
MULES: Correcting alpha.metal
Phase-1 volume fraction = 0.6  Min(alpha.metal) = 0  Max(alpha.metal) = 1
Laser mean position = (0 0 7e-05)
Laser power = 2000
Laser position including any oscillation = (0 0 7e-05)
Calculating laser beam rays
Total Q deposited this timestep:: 283.8628515
smoothSolver:  Solving for T, Initial residual = 0.01689923821, Final residual = 7.139555007e-10, No Iterations 6
Correcting epsilon1, mean residual = 0, max residual = 0
DICPCG:  Solving for p_rgh, Initial residual = 0.09620977748, Final residual = 0.004594629468, No Iterations 12
time step continuity errors : sum local = 7.889194318e-12, global = -1.753891692e-12, cumulative = -7.574080153e-12
DICPCG:  Solving for p_rgh, Initial residual = 0.005164268609, Final residual = 0.0002452368985, No Iterations 14
time step continuity errors : sum local = 5.031522433e-13, global = -2.03179674e-13, cumulative = -7.777259827e-12
DICPCG:  Solving for p_rgh, Initial residual = 0.001289132245, Final residual = 8.943225469e-08, No Iterations 38
time step continuity errors : sum local = 1.856063216e-16, global = -3.780717175e-17, cumulative = -7.777297634e-12
ExecutionTime = 4.638782 s  ClockTime = 4 s

Courant Number mean: 1.966395458e-10 max: 3.809344127e-07
Interface Courant Number mean: 0 max: 0
deltaT = 1.666666667e-05
Selected 0 cells for refinement out of 60784.
Selected 0 split points out of a possible 7576.
Time = 0.0001333333333s

smoothSolver:  Solving for alpha.metal, Initial residual = 2.505325774e-18, Final residual = 2.505325774e-18, No Iterations 0
Phase-1 volume fraction = 0.6  Min(alpha.metal) = 0  Max(alpha.metal) = 1
MULES: Correcting alpha.metal
MULES: Correcting alpha.metal
Phase-1 volume fraction = 0.6  Min(alpha.metal) = 0  Max(alpha.metal) = 1
Laser mean position = (0 0 8e-05)
Laser power = 2000
Laser position including any oscillation = (0 0 8e-05)
Calculating laser beam rays
Total Q deposited this timestep:: 292.8027345
smoothSolver:  Solving for T, Initial residual = 0.01379114145, Final residual = 6.213541552e-10, No Iterations 6
Correcting epsilon1, mean residual = 0, max residual = 0
DICPCG:  Solving for p_rgh, Initial residual = 0.08328873998, Final residual = 0.003583215002, No Iterations 13
time step continuity errors : sum local = 8.123791234e-12, global = -2.194813726e-12, cumulative = -9.972111361e-12
DICPCG:  Solving for p_rgh, Initial residual = 0.004384695254, Final residual = 0.0002049490908, No Iterations 14
time step continuity errors : sum local = 5.444936626e-13, global = -1.796260355e-13, cumulative = -1.01517374e-11
DICPCG:  Solving for p_rgh, Initial residual = 0.0009492978564, Final residual = 9.674991836e-08, No Iterations 37
time step continuity errors : sum local = 2.596317314e-16, global = 6.416907981e-17, cumulative = -1.015167323e-11
ExecutionTime = 5.003326 s  ClockTime = 5 s

Courant Number mean: 2.636089004e-10 max: 4.879582428e-07
Interface Courant Number mean: 0 max: 0
deltaT = 1.666666667e-05
Selected 0 cells for refinement out of 60784.
Selected 0 split points out of a possible 7576.
Time = 0.00015s

smoothSolver:  Solving for alpha.metal, Initial residual = 3.836030992e-18, Final residual = 3.836030992e-18, No Iterations 0
Phase-1 volume fraction = 0.6  Min(alpha.metal) = 0  Max(alpha.metal) = 1
MULES: Correcting alpha.metal
MULES: Correcting alpha.metal
Phase-1 volume fraction = 0.6  Min(alpha.metal) = 0  Max(alpha.metal) = 1
Laser mean position = (0 0 9e-05)
Laser power = 2000
Laser position including any oscillation = (0 0 9e-05)
Calculating laser beam rays
Total Q deposited this timestep:: 301.7058897
smoothSolver:  Solving for T, Initial residual = 0.01164728082, Final residual = 5.513700965e-10, No Iterations 6
Correcting epsilon1, mean residual = 0, max residual = 0
DICPCG:  Solving for p_rgh, Initial residual = 0.06677768077, Final residual = 0.003093472913, No Iterations 13
time step continuity errors : sum local = 8.882802757e-12, global = -2.397122639e-12, cumulative = -1.254879587e-11
DICPCG:  Solving for p_rgh, Initial residual = 0.003975464861, Final residual = 0.0001848653136, No Iterations 14
time step continuity errors : sum local = 6.048267938e-13, global = -1.932762108e-13, cumulative = -1.274207208e-11
DICPCG:  Solving for p_rgh, Initial residual = 0.0008468372895, Final residual = 9.127480437e-08, No Iterations 37
time step continuity errors : sum local = 3.013689565e-16, global = 8.159723728e-17, cumulative = -1.274199048e-11
ExecutionTime = 5.369852 s  ClockTime = 5 s

Courant Number mean: 3.438613576e-10 max: 5.924144497e-07
Interface Courant Number mean: 0 max: 0
deltaT = 1.666666667e-05
Selected 8 cells for refinement out of 60784.
Refined from 60784 to 60840 cells.
Selected 0 split points out of a possible 7584.
Time = 0.0001666666667s

DICPCG:  Solving for pcorr, Initial residual = 0.9999621285, Final residual = 9.047394271e-06, No Iterations 45
time step continuity errors : sum local = 6.370588437e-19, global = -9.580085816e-20, cumulative = -1.274199058e-11
smoothSolver:  Solving for alpha.metal, Initial residual = 4.006220124e-18, Final residual = 4.006220124e-18, No Iterations 0
Phase-1 volume fraction = 0.6  Min(alpha.metal) = 0  Max(alpha.metal) = 1
MULES: Correcting alpha.metal
MULES: Correcting alpha.metal
Phase-1 volume fraction = 0.6  Min(alpha.metal) = 0  Max(alpha.metal) = 1
Laser mean position = (0 0 0.0001)
Laser power = 2000
Laser position including any oscillation = (0 0 0.0001)
Calculating laser beam rays
Total Q deposited this timestep:: 310.574338
smoothSolver:  Solving for T, Initial residual = 0.01009274763, Final residual = 4.965391482e-10, No Iterations 6
Correcting epsilon1, mean residual = 0, max residual = 0
DICPCG:  Solving for p_rgh, Initial residual = 0.05486842811, Final residual = 0.002741569333, No Iterations 13
time step continuity errors : sum local = 9.579725117e-12, global = -2.585114285e-12, cumulative = -1.532710486e-11
DICPCG:  Solving for p_rgh, Initial residual = 0.003658425061, Final residual = 0.0001717077808, No Iterations 14
time step continuity errors : sum local = 6.698518148e-13, global = -2.113221024e-13, cumulative = -1.553842696e-11
DICPCG:  Solving for p_rgh, Initial residual = 0.0007729317039, Final residual = 9.295122805e-08, No Iterations 37
time step continuity errors : sum local = 3.656990721e-16, global = 1.070597796e-16, cumulative = -1.55383199e-11
ExecutionTime = 6.072715 s  ClockTime = 6 s

Courant Number mean: 4.392514724e-10 max: 6.927124288e-07
Interface Courant Number mean: 0 max: 0
deltaT = 1.666666667e-05
Selected 0 cells for refinement out of 60840.
Selected 0 split points out of a possible 7584.
Time = 0.0001833333333s

smoothSolver:  Solving for alpha.metal, Initial residual = 5.727834716e-18, Final residual = 5.727834716e-18, No Iterations 0
Phase-1 volume fraction = 0.6  Min(alpha.metal) = 0  Max(alpha.metal) = 1
MULES: Correcting alpha.metal
MULES: Correcting alpha.metal
Phase-1 volume fraction = 0.6  Min(alpha.metal) = 0  Max(alpha.metal) = 1
Laser mean position = (0 0 0.00011)
Laser power = 2000
Laser position including any oscillation = (0 0 0.00011)
Calculating laser beam rays
Total Q deposited this timestep:: 319.2665767
smoothSolver:  Solving for T, Initial residual = 0.008901413064, Final residual = 4.51463855e-10, No Iterations 6
Correcting epsilon1, mean residual = 0, max residual = 0
DICPCG:  Solving for p_rgh, Initial residual = 0.04602817404, Final residual = 0.002072511914, No Iterations 14
time step continuity errors : sum local = 8.53773195e-12, global = -1.939529962e-12, cumulative = -1.747784986e-11
DICPCG:  Solving for p_rgh, Initial residual = 0.003004733921, Final residual = 0.0001334516287, No Iterations 14
time step continuity errors : sum local = 6.048725564e-13, global = -1.846817063e-13, cumulative = -1.766253157e-11
DICPCG:  Solving for p_rgh, Initial residual = 0.0006240444084, Final residual = 8.40195787e-08, No Iterations 37
time step continuity errors : sum local = 3.835904869e-16, global = 9.561165427e-17, cumulative = -1.766243596e-11
ExecutionTime = 6.434645 s  ClockTime = 6 s

Courant Number mean: 5.509794725e-10 max: 7.881071904e-07
Interface Courant Number mean: 0 max: 0
deltaT = 1.666666667e-05
Selected 0 cells for refinement out of 60840.
Selected 0 split points out of a possible 7584.
Time = 0.0002s

smoothSolver:  Solving for alpha.metal, Initial residual = 6.324579709e-18, Final residual = 6.324579709e-18, No Iterations 0
Phase-1 volume fraction = 0.6  Min(alpha.metal) = 0  Max(alpha.metal) = 1
MULES: Correcting alpha.metal
MULES: Correcting alpha.metal
Phase-1 volume fraction = 0.6  Min(alpha.metal) = 0  Max(alpha.metal) = 1
Laser mean position = (0 0 0.00012)
Laser power = 2000
Laser position including any oscillation = (0 0 0.00012)
Calculating laser beam rays
Total Q deposited this timestep:: 328.0196829
Writing rays to "/home/tomflint/OpenFOAM/custom/LaserbeamFoam/tutorials/laserbeamFoam/Test_Refine/VTKs/rays_13.vtk"
smoothSolver:  Solving for T, Initial residual = 0.007970416847, Final residual = 4.139945028e-10, No Iterations 6
Correcting epsilon1, mean residual = 0, max residual = 0
DICPCG:  Solving for p_rgh, Initial residual = 0.03929221988, Final residual = 0.001877379108, No Iterations 14
time step continuity errors : sum local = 8.915835209e-12, global = -2.037678177e-12, cumulative = -1.970011414e-11
DICPCG:  Solving for p_rgh, Initial residual = 0.002808085219, Final residual = 0.0001396014215, No Iterations 13
time step continuity errors : sum local = 7.20916854e-13, global = -2.354840589e-13, cumulative = -1.99355982e-11
DICPCG:  Solving for p_rgh, Initial residual = 0.0005941877551, Final residual = 7.190594979e-08, No Iterations 36
time step continuity errors : sum local = 3.737924274e-16, global = 9.123855945e-17, cumulative = -1.993550696e-11
ExecutionTime = 7.52703 s  ClockTime = 7 s

Courant Number mean: 6.806894086e-10 max: 8.782418344e-07
Interface Courant Number mean: 0 max: 0
deltaT = 2e-05
Selected 0 cells for refinement out of 60840.
Selected 0 split points out of a possible 7584.
Time = 0.00022s

smoothSolver:  Solving for alpha.metal, Initial residual = 8.562968826e-18, Final residual = 8.562968826e-18, No Iterations 0
Phase-1 volume fraction = 0.6  Min(alpha.metal) = 0  Max(alpha.metal) = 1
MULES: Correcting alpha.metal
MULES: Correcting alpha.metal
Phase-1 volume fraction = 0.6  Min(alpha.metal) = 0  Max(alpha.metal) = 1
Laser mean position = (0 0 0.000132)
Laser power = 2000
Laser position including any oscillation = (0 0 0.000132)
Calculating laser beam rays
Total Q deposited this timestep:: 338.4839006
smoothSolver:  Solving for T, Initial residual = 0.008698324256, Final residual = 3.433426777e-10, No Iterations 7
Correcting epsilon1, mean residual = 0, max residual = 0
DICPCG:  Solving for p_rgh, Initial residual = 0.03344646876, Final residual = 0.001663275893, No Iterations 14
time step continuity errors : sum local = 1.235821874e-11, global = -2.908281744e-12, cumulative = -2.28437887e-11
DICPCG:  Solving for p_rgh, Initial residual = 0.002633186653, Final residual = 0.0001178161733, No Iterations 13
time step continuity errors : sum local = 9.43894189e-13, global = -3.06947547e-13, cumulative = -2.315073625e-11
DICPCG:  Solving for p_rgh, Initial residual = 0.0005667797556, Final residual = 8.825185132e-08, No Iterations 36
time step continuity errors : sum local = 7.114551496e-16, global = 1.723344604e-16, cumulative = -2.315056391e-11
ExecutionTime = 7.887447 s  ClockTime = 7 s

Courant Number mean: 1.024956827e-09 max: 1.16699389e-06
Interface Courant Number mean: 0 max: 0
deltaT = 2e-05
Selected 6 cells for refinement out of 60840.
Refined from 60840 to 60882 cells.
Selected 0 split points out of a possible 7588.
Time = 0.00024s

DICPCG:  Solving for pcorr, Initial residual = 0.9999770246, Final residual = 7.668123854e-06, No Iterations 45
time step continuity errors : sum local = 1.068011049e-18, global = -1.297224078e-20, cumulative = -2.315056393e-11
smoothSolver:  Solving for alpha.metal, Initial residual = 4.293342155e-18, Final residual = 4.293342155e-18, No Iterations 0
Phase-1 volume fraction = 0.6  Min(alpha.metal) = 0  Max(alpha.metal) = 1
MULES: Correcting alpha.metal
MULES: Correcting alpha.metal
Phase-1 volume fraction = 0.6  Min(alpha.metal) = 0  Max(alpha.metal) = 1
Laser mean position = (0 0 0.000144)
Laser power = 2000
Laser position including any oscillation = (0 0 0.000144)
Calculating laser beam rays
Total Q deposited this timestep:: 348.6938628
smoothSolver:  Solving for T, Initial residual = 0.007823317195, Final residual = 3.143050467e-10, No Iterations 7
Correcting epsilon1, mean residual = 0, max residual = 0
DICPCG:  Solving for p_rgh, Initial residual = 0.03502025335, Final residual = 0.001408709491, No Iterations 15
time step continuity errors : sum local = 1.176618567e-11, global = -3.738752976e-12, cumulative = -2.68893169e-11
DICPCG:  Solving for p_rgh, Initial residual = 0.002568017102, Final residual = 0.0001274154254, No Iterations 13
time step continuity errors : sum local = 1.15463595e-12, global = -2.17895672e-13, cumulative = -2.710721257e-11
DICPCG:  Solving for p_rgh, Initial residual = 0.0005308944883, Final residual = 7.630455704e-08, No Iterations 36
time step continuity errors : sum local = 6.95559973e-16, global = 1.484423171e-16, cumulative = -2.710706413e-11
ExecutionTime = 8.700183 s  ClockTime = 8 s

Courant Number mean: 1.27626815e-09 max: 1.277628427e-06
Interface Courant Number mean: 0 max: 0
deltaT = 2e-05
Selected 0 cells for refinement out of 60882.
Selected 0 split points out of a possible 7588.
Time = 0.00026s

smoothSolver:  Solving for alpha.metal, Initial residual = 8.684814531e-18, Final residual = 8.684814531e-18, No Iterations 0
Phase-1 volume fraction = 0.6  Min(alpha.metal) = 0  Max(alpha.metal) = 1
MULES: Correcting alpha.metal
MULES: Correcting alpha.metal
Phase-1 volume fraction = 0.6  Min(alpha.metal) = 0  Max(alpha.metal) = 1
Laser mean position = (0 0 0.000156)
Laser power = 2000
Laser position including any oscillation = (0 0 0.000156)
Calculating laser beam rays
Total Q deposited this timestep:: 358.7326274
smoothSolver:  Solving for T, Initial residual = 0.007111324692, Final residual = 9.940900659e-10, No Iterations 6
Correcting epsilon1, mean residual = 0, max residual = 0
DICPCG:  Solving for p_rgh, Initial residual = 0.03049686154, Final residual = 0.001286397791, No Iterations 15
time step continuity errors : sum local = 1.208794533e-11, global = -3.919669765e-12, cumulative = -3.10267339e-11
DICPCG:  Solving for p_rgh, Initial residual = 0.002432124318, Final residual = 0.0001203111113, No Iterations 13
time step continuity errors : sum local = 1.216108153e-12, global = -2.168996392e-13, cumulative = -3.124363354e-11
DICPCG:  Solving for p_rgh, Initial residual = 0.0005015066557, Final residual = 7.496536412e-08, No Iterations 36
time step continuity errors : sum local = 7.618998527e-16, global = 1.498200495e-16, cumulative = -3.124348372e-11
ExecutionTime = 9.064986 s  ClockTime = 9 s

Courant Number mean: 1.570178255e-09 max: 1.380377295e-06
Interface Courant Number mean: 0 max: 0
deltaT = 2e-05
Selected 4 cells for refinement out of 60882.
Refined from 60882 to 60910 cells.
Selected 0 split points out of a possible 7592.
Time = 0.00028s

DICPCG:  Solving for pcorr, Initial residual = 0.9999860512, Final residual = 7.486333436e-06, No Iterations 45
time step continuity errors : sum local = 1.717443016e-18, global = -1.136358764e-20, cumulative = -3.124348373e-11
smoothSolver:  Solving for alpha.metal, Initial residual = 2.267577204e-18, Final residual = 2.267577204e-18, No Iterations 0
Phase-1 volume fraction = 0.6  Min(alpha.metal) = 0  Max(alpha.metal) = 1
MULES: Correcting alpha.metal
MULES: Correcting alpha.metal
Phase-1 volume fraction = 0.6  Min(alpha.metal) = 0  Max(alpha.metal) = 1
Laser mean position = (0 0 0.000168)
Laser power = 2000
Laser position including any oscillation = (0 0 0.000168)
Calculating laser beam rays
Total Q deposited this timestep:: 368.5985303
smoothSolver:  Solving for T, Initial residual = 0.006526454879, Final residual = 9.216580704e-10, No Iterations 6
Correcting epsilon1, mean residual = 0, max residual = 0
DICPCG:  Solving for p_rgh, Initial residual = 0.02690222936, Final residual = 0.001186308494, No Iterations 15
time step continuity errors : sum local = 1.238492246e-11, global = -4.06726156e-12, cumulative = -3.531074529e-11
DICPCG:  Solving for p_rgh, Initial residual = 0.002312534265, Final residual = 0.000114742365, No Iterations 13
time step continuity errors : sum local = 1.279696875e-12, global = -2.151959865e-13, cumulative = -3.552594127e-11
DICPCG:  Solving for p_rgh, Initial residual = 0.0004762158355, Final residual = 7.835444194e-08, No Iterations 36
time step continuity errors : sum local = 8.783167733e-16, global = 1.536220503e-16, cumulative = -3.552578765e-11
ExecutionTime = 9.781054 s  ClockTime = 9 s

Courant Number mean: 1.908972894e-09 max: 1.474531785e-06
Interface Courant Number mean: 0 max: 0
deltaT = 2e-05
Selected 4 cells for refinement out of 60910.
Refined from 60910 to 60938 cells.
Selected 0 split points out of a possible 7594.
Time = 0.0003s

DICPCG:  Solving for pcorr, Initial residual = 0.9999892254, Final residual = 7.219249133e-06, No Iterations 45
time step continuity errors : sum local = 2.144087144e-18, global = -1.170542335e-21, cumulative = -3.552578765e-11
smoothSolver:  Solving for alpha.metal, Initial residual = 2.268779643e-18, Final residual = 2.268779643e-18, No Iterations 0
Phase-1 volume fraction = 0.6  Min(alpha.metal) = 0  Max(alpha.metal) = 1
MULES: Correcting alpha.metal
MULES: Correcting alpha.metal
Phase-1 volume fraction = 0.6  Min(alpha.metal) = 0  Max(alpha.metal) = 1
Laser mean position = (0 0 0.00018)
Laser power = 2000
Laser position including any oscillation = (0 0 0.00018)
Calculating laser beam rays
#0  Foam::error::printStack(Foam::Ostream&) at ??:?
#1  Foam::sigQuit::sigHandler(int) at ??:?
#2  ? in "/lib/x86_64-linux-gnu/libc.so.6"
#3  Foam::treeBoundBox::subBbox(unsigned char) const at ??:?
#4  Foam::indexedOctree<Foam::treeDataCell>::divide(Foam::List<int> const&, Foam::treeBoundBox const&, Foam::List<Foam::List<int> >&) const at ??:?
#5  Foam::indexedOctree<Foam::treeDataCell>::divide(Foam::treeBoundBox const&, Foam::DynamicList<Foam::List<int>, 0u, 2u, 1u>&, int) const at ??:?
#6  Foam::indexedOctree<Foam::treeDataCell>::splitNodes(int, Foam::DynamicList<Foam::indexedOctree<Foam::treeDataCell>::node, 0u, 2u, 1u>&, Foam::DynamicList<Foam::List<int>, 0u, 2u, 1u>&) const at ??:?
#7  Foam::indexedOctree<Foam::treeDataCell>::indexedOctree(Foam::treeDataCell const&, Foam::treeBoundBox const&, int, double, double) at ??:?
#8  Foam::polyMesh::cellTree() const at ??:?
#9  Foam::polyMesh::findCellFacePt(Foam::Vector<double> const&, int&, int&, int&) const at ??:?
#10  Foam::polyMesh::findCell(Foam::Vector<double> const&, Foam::polyMesh::cellDecomposition) const at ??:?
#11  Foam::findLocalCell(Foam::Vector<double> const&, int, Foam::polyMesh const&, int, Foam::Switch) at ??:?
#12  Foam::laserHeatSource::updateDeposition(Foam::GeometricField<double, Foam::fvPatchField, Foam::volMesh> const&, Foam::GeometricField<Foam::Vector<double>, Foam::fvPatchField, Foam::volMesh> const&, Foam::GeometricField<double, Foam::fvPatchField, Foam::volMesh> const&) at ??:?
#13  ? in "/home/tomflint/OpenFOAM/tomflint-10/platforms/linux64GccDPInt32Opt/bin/laserbeamFoam"
#14  ? in "/lib/x86_64-linux-gnu/libc.so.6"
#15  __libc_start_main in "/lib/x86_64-linux-gnu/libc.so.6"
#16  ? in "/home/tomflint/OpenFOAM/tomflint-10/platforms/linux64GccDPInt32Opt/bin/laserbeamFoam"
