/*---------------------------------------------------------------------------*\
  =========                 |
  \\      /  F ield         | OpenFOAM: The Open Source CFD Toolbox
   \\    /   O peration     | Website:  https://openfoam.org
    \\  /    A nd           | Version:  10
     \\/     M anipulation  |
\*---------------------------------------------------------------------------*/
Build  : 10-0347120b3b9d
Exec   : laserbeamFoam -parallel
Date   : Nov 26 2022
Time   : 21:33:37
Host   : "flint-hp"
PID    : 10294
I/O    : uncollated
Case   : /home/tomflint/OpenFOAM/custom/LaserbeamFoam/tutorials/Ti_Validation/2D_Ti_95_156
nProcs : 4
Slaves : 
3
(
"flint-hp.10295"
"flint-hp.10296"
"flint-hp.10297"
)

Pstream initialised with:
    floatTransfer      : 0
    nProcsSimpleSum    : 0
    commsType          : nonBlocking
    polling iterations : 0
sigFpe : Enabling floating point exception trapping (FOAM_SIGFPE).
fileModificationChecking : Monitoring run-time modified files using timeStampMaster (fileModificationSkew 10)
allowSystemOperations : Allowing user-supplied system call operations

// * * * * * * * * * * * * * * * * * * * * * * * * * * * * * * * * * * * * * //
Create time

Create mesh for time = 0


PIMPLE: No convergence criteria found


PIMPLE: Operating solver in transient mode with 1 outer corrector
PIMPLE: Operating solver in PISO mode


Reading field p_rgh

Reading field U

Reading field Temperature

Reading/calculating face flux field phi

Reading phaseProperties

Selecting viscosity model constant
Selecting viscosity model constant
No phase change: phaseChangeProperties not found
Selecting phaseChange model none

Reading g

Reading hRef
Calculating field g.h

Selecting turbulence model type laminar
Selecting laminar stress model Stokes
No MRF models present

No fvModels present
No fvConstraints present
DICPCG:  Solving for pcorr, Initial residual = 0, Final residual = 0, No Iterations 0
time step continuity errors : sum local = 0, global = 0, cumulative = 0
Courant Number mean: 0 max: 0

Starting time loop

Courant Number mean: 0 max: 0
Interface Courant Number mean: 0 max: 0
deltaT = 5e-06
Time = 5e-06s

smoothSolver:  Solving for alpha.metal, Initial residual = 0, Final residual = 0, No Iterations 0
Phase-1 volume fraction = 0.6666666667  Min(alpha.metal) = 0  Max(alpha.metal) = 1
MULES: Correcting alpha.metal
MULES: Correcting alpha.metal
Phase-1 volume fraction = 0.6666666667  Min(alpha.metal) = 0  Max(alpha.metal) = 1
useLocalSearch: true
cos (theta): 	1
iterator_distance 	7.957747155e-07
Beam: 0
Beam: 1
Beam: 2
Beam: 3
Beam: 4
Beam: 5
Beam: 6
Beam: 7
Beam: 8
Beam: 9
Beam: 10
Beam: 11
Beam: 12
Beam: 13
Beam: 14
Beam: 15
Beam: 16
Beam: 17
Beam: 18
Beam: 19
Beam: 20
Beam: 21
Beam: 22
Beam: 23
Beam: 24
Beam: 25
Beam: 26
Beam: 27
Total Q deposited this timestep: 	5.302830943e-05
smoothSolver:  Solving for T, Initial residual = 1, Final residual = 7.527540112e-10, No Iterations 57
Correcting epsilon1, mean residual = 0, max residual = 0
DICPCG:  Solving for p_rgh, Initial residual = 0.0342430911, Final residual = 8.746062129e-10, No Iterations 81
time step continuity errors : sum local = 1.257801873e-23, global = -7.055876791e-26, cumulative = -7.055876791e-26
DICPCG:  Solving for p_rgh, Initial residual = 1.168159836e-09, Final residual = 9.528960762e-10, No Iterations 4
time step continuity errors : sum local = 1.418396262e-23, global = 1.625529652e-25, cumulative = 9.199419728e-26
DICPCG:  Solving for p_rgh, Initial residual = 1.364071739e-09, Final residual = 7.940372452e-10, No Iterations 2
time step continuity errors : sum local = 1.181941467e-23, global = 4.053177501e-25, cumulative = 4.973119474e-25
ExecutionTime = 0.069757 s  ClockTime = 0 s

Courant Number mean: 6.370917017e-23 max: 7.080642428e-22
Interface Courant Number mean: 0 max: 0
deltaT = 5e-06
Time = 1e-05s

smoothSolver:  Solving for alpha.metal, Initial residual = 3.78447067e-25, Final residual = 3.78447067e-25, No Iterations 0
Phase-1 volume fraction = 0.6666666667  Min(alpha.metal) = 0  Max(alpha.metal) = 1
MULES: Correcting alpha.metal
MULES: Correcting alpha.metal
Phase-1 volume fraction = 0.6666666667  Min(alpha.metal) = 0  Max(alpha.metal) = 1
useLocalSearch: true
cos (theta): 	1
iterator_distance 	7.957747155e-07
Beam: 0
Beam: 1
Beam: 2
Beam: 3
Beam: 4
Beam: 5
Beam: 6
Beam: 7
Beam: 8
Beam: 9
Beam: 10
Beam: 11
Beam: 12
Beam: 13
Beam: 14
Beam: 15
Beam: 16
Beam: 17
Beam: 18
Beam: 19
Beam: 20
Beam: 21
Beam: 22
Beam: 23
Beam: 24
Beam: 25
Beam: 26
Beam: 27
Total Q deposited this timestep: 	5.302830943e-05
smoothSolver:  Solving for T, Initial residual = 0.1713401863, Final residual = 7.272008933e-10, No Iterations 52
Correcting epsilon1, mean residual = 0.0004986372253, max residual = 1
smoothSolver:  Solving for T, Initial residual = 0.009277955916, Final residual = 7.324280998e-10, No Iterations 45
Correcting epsilon1, mean residual = 3.895670297e-05, max residual = 0.2622069905
smoothSolver:  Solving for T, Initial residual = 0.000756411091, Final residual = 9.104883569e-10, No Iterations 36
Correcting epsilon1, mean residual = 2.30397581e-05, max residual = 0.1658862583
smoothSolver:  Solving for T, Initial residual = 0.0004457967132, Final residual = 8.979258471e-10, No Iterations 35
Correcting epsilon1, mean residual = 0, max residual = 0
DICPCG:  Solving for p_rgh, Initial residual = 0.9999999874, Final residual = 8.640843964e-10, No Iterations 162
time step continuity errors : sum local = 9.927616757e-16, global = 3.153738405e-17, cumulative = 3.153738455e-17
DICPCG:  Solving for p_rgh, Initial residual = 0.3579776765, Final residual = 9.021536861e-10, No Iterations 159
time step continuity errors : sum local = 2.233701529e-15, global = -3.625254759e-18, cumulative = 2.791212979e-17
DICPCG:  Solving for p_rgh, Initial residual = 0.05081801695, Final residual = 8.27368187e-10, No Iterations 118
time step continuity errors : sum local = 1.982134117e-15, global = 9.071940331e-18, cumulative = 3.698407012e-17
ExecutionTime = 0.130539 s  ClockTime = 0 s

Courant Number mean: 2.303109824e-05 max: 0.004194716936
Interface Courant Number mean: 0 max: 0
deltaT = 5e-06
Time = 1.5e-05s

smoothSolver:  Solving for alpha.metal, Initial residual = 1.183499922e-12, Final residual = 1.183499922e-12, No Iterations 0
Phase-1 volume fraction = 0.6666666667  Min(alpha.metal) = 0  Max(alpha.metal) = 1
MULES: Correcting alpha.metal
MULES: Correcting alpha.metal
Phase-1 volume fraction = 0.6666666667  Min(alpha.metal) = 0  Max(alpha.metal) = 1
useLocalSearch: true
cos (theta): 	1
iterator_distance 	7.957747155e-07
Beam: 0
Beam: 1
Beam: 2
Beam: 3
Beam: 4
Beam: 5
Beam: 6
Beam: 7
Beam: 8
Beam: 9
Beam: 10
Beam: 11
Beam: 12
Beam: 13
Beam: 14
Beam: 15
Beam: 16
Beam: 17
Beam: 18
Beam: 19
Beam: 20
Beam: 21
Beam: 22
Beam: 23
Beam: 24
Beam: 25
Beam: 26
Beam: 27
Total Q deposited this timestep: 	5.302830943e-05
smoothSolver:  Solving for T, Initial residual = 0.09360300981, Final residual = 7.103318696e-10, No Iterations 49
Correcting epsilon1, mean residual = 0.0002558381314, max residual = 0.8095854178
smoothSolver:  Solving for T, Initial residual = 0.0032418067, Final residual = 7.757507632e-10, No Iterations 40
Correcting epsilon1, mean residual = 0.0001029346479, max residual = 0.2738469167
smoothSolver:  Solving for T, Initial residual = 0.001309721066, Final residual = 7.567298599e-10, No Iterations 38
Correcting epsilon1, mean residual = 4.592251715e-05, max residual = 0.1768266823
smoothSolver:  Solving for T, Initial residual = 0.0005868778502, Final residual = 8.214270756e-10, No Iterations 36
Correcting epsilon1, mean residual = 3.103868043e-05, max residual = 0.1122218276
smoothSolver:  Solving for T, Initial residual = 0.000396935168, Final residual = 7.31926377e-10, No Iterations 35
Correcting epsilon1, mean residual = 1.132721969e-05, max residual = 0.04866439291
smoothSolver:  Solving for T, Initial residual = 0.000145396549, Final residual = 8.937668899e-10, No Iterations 30
Correcting epsilon1, mean residual = 8.84292e-06, max residual = 0.03705280391
smoothSolver:  Solving for T, Initial residual = 0.0001129187818, Final residual = 9.261980319e-10, No Iterations 29
Correcting epsilon1, mean residual = 6.921786952e-06, max residual = 0.02833024096
smoothSolver:  Solving for T, Initial residual = 8.839526349e-05, Final residual = 9.496373119e-10, No Iterations 28
Correcting epsilon1, mean residual = 5.431730283e-06, max residual = 0.02175968329
smoothSolver:  Solving for T, Initial residual = 6.936668255e-05, Final residual = 9.76881186e-10, No Iterations 27
Correcting epsilon1, mean residual = 4.271962791e-06, max residual = 0.0167834223
smoothSolver:  Solving for T, Initial residual = 5.455461089e-05, Final residual = 6.907191214e-10, No Iterations 27
Correcting epsilon1, mean residual = 3.366428824e-06, max residual = 0.01299528103
smoothSolver:  Solving for T, Initial residual = 4.298893043e-05, Final residual = 7.157536659e-10, No Iterations 26
Correcting epsilon1, mean residual = 2.657410315e-06, max residual = 0.01009764683
smoothSolver:  Solving for T, Initial residual = 3.393360378e-05, Final residual = 7.446738764e-10, No Iterations 25
Correcting epsilon1, mean residual = 1.699969531e-06, max residual = 0.007871167474
smoothSolver:  Solving for T, Initial residual = 2.171276187e-05, Final residual = 8.83051076e-10, No Iterations 25
Correcting epsilon1, mean residual = 9.457232818e-07, max residual = 0.005998340077
smoothSolver:  Solving for T, Initial residual = 1.20933547e-05, Final residual = 9.612108017e-10, No Iterations 25
Correcting epsilon1, mean residual = 6.914639816e-07, max residual = 0.004440940968
smoothSolver:  Solving for T, Initial residual = 8.851069432e-06, Final residual = 7.059819201e-10, No Iterations 25
Correcting epsilon1, mean residual = 5.059129835e-07, max residual = 0.003288450449
smoothSolver:  Solving for T, Initial residual = 6.476290497e-06, Final residual = 7.579366981e-10, No Iterations 24
Correcting epsilon1, mean residual = 3.703767474e-07, max residual = 0.002435269982
smoothSolver:  Solving for T, Initial residual = 4.741690213e-06, Final residual = 8.139174866e-10, No Iterations 23
Correcting epsilon1, mean residual = 2.713092543e-07, max residual = 0.001803599695
smoothSolver:  Solving for T, Initial residual = 3.473739762e-06, Final residual = 8.741960101e-10, No Iterations 22
Correcting epsilon1, mean residual = 1.988521166e-07, max residual = 0.001335883093
smoothSolver:  Solving for T, Initial residual = 2.546331536e-06, Final residual = 9.390832313e-10, No Iterations 21
Correcting epsilon1, mean residual = 1.458250996e-07, max residual = 0.0009895327507
smoothSolver:  Solving for T, Initial residual = 1.867593597e-06, Final residual = 6.916827278e-10, No Iterations 21
Correcting epsilon1, mean residual = 1.069939985e-07, max residual = 0.0007330289838
smoothSolver:  Solving for T, Initial residual = 1.370329908e-06, Final residual = 7.432019447e-10, No Iterations 20
Correcting epsilon1, mean residual = 7.854336749e-08, max residual = 0.00054305562
smoothSolver:  Solving for T, Initial residual = 1.00614299e-06, Final residual = 7.987563789e-10, No Iterations 19
Correcting epsilon1, mean residual = 5.768615931e-08, max residual = 0.0004023425607
smoothSolver:  Solving for T, Initial residual = 7.391568843e-07, Final residual = 8.585264871e-10, No Iterations 18
Correcting epsilon1, mean residual = 4.238751205e-08, max residual = 0.0002981087806
smoothSolver:  Solving for T, Initial residual = 5.43327228e-07, Final residual = 9.22836829e-10, No Iterations 17
Correcting epsilon1, mean residual = 3.116024311e-08, max residual = 0.0002208917555
smoothSolver:  Solving for T, Initial residual = 3.996205893e-07, Final residual = 9.920576169e-10, No Iterations 16
Correcting epsilon1, mean residual = 2.291675356e-08, max residual = 0.0001636851312
smoothSolver:  Solving for T, Initial residual = 2.941241145e-07, Final residual = 7.324693205e-10, No Iterations 16
Correcting epsilon1, mean residual = 1.686022547e-08, max residual = 0.0001212955714
smoothSolver:  Solving for T, Initial residual = 2.163989783e-07, Final residual = 7.868435284e-10, No Iterations 15
Correcting epsilon1, mean residual = 1.25599624e-08, max residual = 8.989181778e-05
smoothSolver:  Solving for T, Initial residual = 1.613502561e-07, Final residual = 8.463475631e-10, No Iterations 14
Correcting epsilon1, mean residual = 9.368196657e-09, max residual = 6.662210589e-05
smoothSolver:  Solving for T, Initial residual = 1.205113251e-07, Final residual = 9.107124306e-10, No Iterations 13
Correcting epsilon1, mean residual = 6.985157012e-09, max residual = 4.937872721e-05
smoothSolver:  Solving for T, Initial residual = 9.002922569e-08, Final residual = 9.806227438e-10, No Iterations 12
Correcting epsilon1, mean residual = 5.206678197e-09, max residual = 3.660042637e-05
smoothSolver:  Solving for T, Initial residual = 6.730423788e-08, Final residual = 7.27429465e-10, No Iterations 12
Correcting epsilon1, mean residual = 3.879361045e-09, max residual = 2.712470949e-05
smoothSolver:  Solving for T, Initial residual = 5.014400267e-08, Final residual = 7.804211498e-10, No Iterations 11
Correcting epsilon1, mean residual = 2.889995051e-09, max residual = 2.010730366e-05
smoothSolver:  Solving for T, Initial residual = 3.754547948e-08, Final residual = 8.427601823e-10, No Iterations 10
Correcting epsilon1, mean residual = 2.152446446e-09, max residual = 1.490650093e-05
smoothSolver:  Solving for T, Initial residual = 2.819601535e-08, Final residual = 9.125950821e-10, No Iterations 9
Correcting epsilon1, mean residual = 1.602807604e-09, max residual = 1.105195188e-05
smoothSolver:  Solving for T, Initial residual = 2.127423018e-08, Final residual = 9.923682335e-10, No Iterations 8
Correcting epsilon1, mean residual = 1.193343235e-09, max residual = 8.195213842e-06
DICPCG:  Solving for p_rgh, Initial residual = 0.9933449575, Final residual = 8.319362267e-10, No Iterations 153
time step continuity errors : sum local = 2.694732911e-13, global = 3.157058317e-15, cumulative = 3.194042387e-15
DICPCG:  Solving for p_rgh, Initial residual = 0.2457928762, Final residual = 8.41850388e-10, No Iterations 154
time step continuity errors : sum local = 1.643812242e-12, global = 4.362985944e-15, cumulative = 7.557028331e-15
DICPCG:  Solving for p_rgh, Initial residual = 0.01641184104, Final residual = 9.845014503e-10, No Iterations 135
time step continuity errors : sum local = 1.380370121e-11, global = 2.987414906e-13, cumulative = 3.06298519e-13
ExecutionTime = 0.256666 s  ClockTime = 0 s

Courant Number mean: 0.005674593939 max: 1.896511838
Interface Courant Number mean: 0 max: 0
deltaT = 2.631578947e-07
Time = 1.526315789e-05s

smoothSolver:  Solving for alpha.metal, Initial residual = 2.44232047e-05, Final residual = 2.45287195e-12, No Iterations 2
Phase-1 volume fraction = 0.6666666667  Min(alpha.metal) = 0  Max(alpha.metal) = 1
MULES: Correcting alpha.metal
MULES: Correcting alpha.metal
Phase-1 volume fraction = 0.6666666667  Min(alpha.metal) = -4.913179175e-16  Max(alpha.metal) = 1
useLocalSearch: true
cos (theta): 	1
iterator_distance 	7.957747155e-07
Beam: 0
Beam: 1
Beam: 2
Beam: 3
Beam: 4
Beam: 5
Beam: 6
Beam: 7
Beam: 8
Beam: 9
Beam: 10
Beam: 11
Beam: 12
Beam: 13
Beam: 14
Beam: 15
Beam: 16
Beam: 17
Beam: 18
Beam: 19
Beam: 20
Beam: 21
Beam: 22
Beam: 23
Beam: 24
Beam: 25
Beam: 26
Beam: 27
Total Q deposited this timestep: 	5.302831062e-05
smoothSolver:  Solving for T, Initial residual = 0.003953808153, Final residual = 7.554845173e-10, No Iterations 6
Correcting epsilon1, mean residual = 2.650275193e-05, max residual = 0.09197597775
smoothSolver:  Solving for T, Initial residual = 0.0003250255008, Final residual = 2.940502412e-10, No Iterations 5
Correcting epsilon1, mean residual = 2.295205031e-06, max residual = 0.006867213133
smoothSolver:  Solving for T, Initial residual = 2.816067798e-05, Final residual = 2.328980927e-10, No Iterations 4
Correcting epsilon1, mean residual = 3.08111876e-07, max residual = 0.001374318116
smoothSolver:  Solving for T, Initial residual = 3.780090187e-06, Final residual = 4.154544528e-10, No Iterations 3
Correcting epsilon1, mean residual = 5.910192622e-08, max residual = 0.0003218279985
smoothSolver:  Solving for T, Initial residual = 7.253768871e-07, Final residual = 7.241499532e-11, No Iterations 3
Correcting epsilon1, mean residual = 1.222731438e-08, max residual = 7.536433492e-05
smoothSolver:  Solving for T, Initial residual = 1.50055861e-07, Final residual = 2.620376464e-10, No Iterations 2
Correcting epsilon1, mean residual = 2.669433703e-09, max residual = 1.766029208e-05
smoothSolver:  Solving for T, Initial residual = 3.300454858e-08, Final residual = 5.499872892e-11, No Iterations 2
Correcting epsilon1, mean residual = 5.975198791e-10, max residual = 4.128052928e-06
DICPCG:  Solving for p_rgh, Initial residual = 0.1123929331, Final residual = 9.92093161e-10, No Iterations 145
time step continuity errors : sum local = 7.196595187e-13, global = 1.229417781e-14, cumulative = 3.185926968e-13
DICPCG:  Solving for p_rgh, Initial residual = 0.007038778604, Final residual = 9.850177054e-10, No Iterations 124
time step continuity errors : sum local = 1.58158794e-12, global = -1.39411222e-14, cumulative = 3.046515746e-13
DICPCG:  Solving for p_rgh, Initial residual = 0.002579632394, Final residual = 9.279439832e-10, No Iterations 102
time step continuity errors : sum local = 1.31977983e-12, global = -2.764057418e-15, cumulative = 3.018875172e-13
ExecutionTime = 0.308018 s  ClockTime = 0 s

Courant Number mean: 0.0004431995277 max: 0.104607833
Interface Courant Number mean: 4.383283085e-05 max: 0.104607833
deltaT = 2.514446353e-07
Time = 1.551460253e-05s

smoothSolver:  Solving for alpha.metal, Initial residual = 2.344127528e-05, Final residual = 5.448207722e-13, No Iterations 2
Phase-1 volume fraction = 0.6666666667  Min(alpha.metal) = 0  Max(alpha.metal) = 1
MULES: Correcting alpha.metal
MULES: Correcting alpha.metal
Phase-1 volume fraction = 0.6666666667  Min(alpha.metal) = -1.871355753e-34  Max(alpha.metal) = 1
useLocalSearch: true
cos (theta): 	1
iterator_distance 	7.957747155e-07
Beam: 0
Beam: 1
Beam: 2
Beam: 3
Beam: 4
Beam: 5
Beam: 6
Beam: 7
Beam: 8
Beam: 9
Beam: 10
Beam: 11
Beam: 12
Beam: 13
Beam: 14
Beam: 15
Beam: 16
Beam: 17
Beam: 18
Beam: 19
Beam: 20
Beam: 21
Beam: 22
Beam: 23
Beam: 24
Beam: 25
Beam: 26
Beam: 27
Total Q deposited this timestep: 	5.302831345e-05
smoothSolver:  Solving for T, Initial residual = 0.004543912154, Final residual = 9.630350153e-10, No Iterations 6
Correcting epsilon1, mean residual = 1.87052641e-05, max residual = 0.08082256389
smoothSolver:  Solving for T, Initial residual = 0.0002288417699, Final residual = 5.568998436e-11, No Iterations 5
Correcting epsilon1, mean residual = 3.060519158e-06, max residual = 0.01169138199
smoothSolver:  Solving for T, Initial residual = 3.731690538e-05, Final residual = 1.689057275e-10, No Iterations 4
Correcting epsilon1, mean residual = 5.363650083e-07, max residual = 0.002538564309
smoothSolver:  Solving for T, Initial residual = 6.526953836e-06, Final residual = 5.207962661e-10, No Iterations 3
Correcting epsilon1, mean residual = 1.000582325e-07, max residual = 0.0005512752069
smoothSolver:  Solving for T, Initial residual = 1.215743164e-06, Final residual = 9.177449852e-11, No Iterations 3
Correcting epsilon1, mean residual = 1.961868195e-08, max residual = 0.000119714775
smoothSolver:  Solving for T, Initial residual = 2.380418327e-07, Final residual = 3.453698435e-10, No Iterations 2
Correcting epsilon1, mean residual = 3.99552085e-09, max residual = 2.601337176e-05
smoothSolver:  Solving for T, Initial residual = 4.871879588e-08, Final residual = 6.857006477e-11, No Iterations 2
Correcting epsilon1, mean residual = 8.290367492e-10, max residual = 5.638309062e-06
DICPCG:  Solving for p_rgh, Initial residual = 0.03356917657, Final residual = 9.719895752e-10, No Iterations 128
time step continuity errors : sum local = 1.314947257e-12, global = 3.784211266e-14, cumulative = 3.397296298e-13
DICPCG:  Solving for p_rgh, Initial residual = 0.006297974282, Final residual = 9.583069322e-10, No Iterations 121
time step continuity errors : sum local = 1.001024745e-12, global = 3.000734175e-14, cumulative = 3.697369716e-13
DICPCG:  Solving for p_rgh, Initial residual = 0.002199962408, Final residual = 7.287681973e-10, No Iterations 102
time step continuity errors : sum local = 7.880541604e-13, global = -1.250885873e-15, cumulative = 3.684860857e-13
ExecutionTime = 0.357933 s  ClockTime = 0 s

Courant Number mean: 0.0005522444756 max: 0.09499260841
Interface Courant Number mean: 6.342515335e-05 max: 0.09499260841
deltaT = 2.640168671e-07
Time = 1.57786194e-05s

smoothSolver:  Solving for alpha.metal, Initial residual = 2.447144515e-05, Final residual = 1.823158538e-12, No Iterations 2
Phase-1 volume fraction = 0.6666666667  Min(alpha.metal) = 0  Max(alpha.metal) = 1
MULES: Correcting alpha.metal
MULES: Correcting alpha.metal
Phase-1 volume fraction = 0.6666666667  Min(alpha.metal) = -3.667691431e-29  Max(alpha.metal) = 1
useLocalSearch: true
cos (theta): 	1
iterator_distance 	7.957747155e-07
Beam: 0
Beam: 1
Beam: 2
Beam: 3
Beam: 4
Beam: 5
Beam: 6
Beam: 7
Beam: 8
Beam: 9
Beam: 10
Beam: 11
Beam: 12
Beam: 13
Beam: 14
Beam: 15
Beam: 16
Beam: 17
Beam: 18
Beam: 19
Beam: 20
Beam: 21
Beam: 22
Beam: 23
Beam: 24
Beam: 25
Beam: 26
Beam: 27
Total Q deposited this timestep: 	5.302832891e-05
smoothSolver:  Solving for T, Initial residual = 0.004455646188, Final residual = 1.325449055e-10, No Iterations 7
Correcting epsilon1, mean residual = 2.410984505e-05, max residual = 0.1089883549
smoothSolver:  Solving for T, Initial residual = 0.0002943144839, Final residual = 9.588869242e-11, No Iterations 5
Correcting epsilon1, mean residual = 4.026413381e-06, max residual = 0.01516491763
smoothSolver:  Solving for T, Initial residual = 4.898044139e-05, Final residual = 2.711100891e-10, No Iterations 4
Correcting epsilon1, mean residual = 7.03963174e-07, max residual = 0.002959388567
smoothSolver:  Solving for T, Initial residual = 8.534710852e-06, Final residual = 8.035170992e-10, No Iterations 3
Correcting epsilon1, mean residual = 1.287161445e-07, max residual = 0.0006335861385
smoothSolver:  Solving for T, Initial residual = 1.555890499e-06, Final residual = 1.413927718e-10, No Iterations 3
Correcting epsilon1, mean residual = 2.448405146e-08, max residual = 0.0001356477458
smoothSolver:  Solving for T, Initial residual = 2.951106126e-07, Final residual = 4.919951409e-10, No Iterations 2
Correcting epsilon1, mean residual = 4.82187308e-09, max residual = 2.906297928e-05
smoothSolver:  Solving for T, Initial residual = 5.835807744e-08, Final residual = 9.498437738e-11, No Iterations 2
Correcting epsilon1, mean residual = 9.667426403e-10, max residual = 6.208381162e-06
DICPCG:  Solving for p_rgh, Initial residual = 0.04430969955, Final residual = 9.134879686e-10, No Iterations 126
time step continuity errors : sum local = 1.067204102e-12, global = 1.608113399e-14, cumulative = 3.845672197e-13
DICPCG:  Solving for p_rgh, Initial residual = 0.003807193259, Final residual = 9.094368906e-10, No Iterations 105
time step continuity errors : sum local = 1.181631974e-12, global = 1.217964753e-14, cumulative = 3.967468672e-13
DICPCG:  Solving for p_rgh, Initial residual = 0.001506626124, Final residual = 9.553551226e-10, No Iterations 102
time step continuity errors : sum local = 1.220131e-12, global = 1.115027253e-14, cumulative = 4.078971398e-13
ExecutionTime = 0.407782 s  ClockTime = 0 s

Courant Number mean: 0.0007117819939 max: 0.1130156666
Interface Courant Number mean: 7.912251058e-05 max: 0.1130156666
deltaT = 2.333002233e-07
Time = 1.601191962e-05s

smoothSolver:  Solving for alpha.metal, Initial residual = 2.275608456e-05, Final residual = 3.277140585e-12, No Iterations 2
Phase-1 volume fraction = 0.6666666667  Min(alpha.metal) = 0  Max(alpha.metal) = 1
MULES: Correcting alpha.metal
MULES: Correcting alpha.metal
Phase-1 volume fraction = 0.6666666667  Min(alpha.metal) = -8.330582006e-27  Max(alpha.metal) = 1
useLocalSearch: true
cos (theta): 	1
iterator_distance 	7.957747155e-07
Beam: 0
Beam: 1
Beam: 2
Beam: 3
Beam: 4
Beam: 5
Beam: 6
Beam: 7
Beam: 8
Beam: 9
Beam: 10
Beam: 11
Beam: 12
Beam: 13
Beam: 14
Beam: 15
Beam: 16
Beam: 17
Beam: 18
Beam: 19
Beam: 20
Beam: 21
Beam: 22
Beam: 23
Beam: 24
Beam: 25
Beam: 26
Beam: 27
Total Q deposited this timestep: 	5.302835994e-05
smoothSolver:  Solving for T, Initial residual = 0.003706894483, Final residual = 5.334350095e-10, No Iterations 6
Correcting epsilon1, mean residual = 2.522792974e-05, max residual = 0.1177048054
smoothSolver:  Solving for T, Initial residual = 0.0003063808786, Final residual = 9.219999101e-10, No Iterations 4
Correcting epsilon1, mean residual = 3.447605181e-06, max residual = 0.01346572364
smoothSolver:  Solving for T, Initial residual = 4.170575803e-05, Final residual = 1.246065525e-10, No Iterations 4
Correcting epsilon1, mean residual = 4.941177097e-07, max residual = 0.002017846397
smoothSolver:  Solving for T, Initial residual = 5.950980488e-06, Final residual = 3.357557625e-10, No Iterations 3
Correcting epsilon1, mean residual = 7.424462456e-08, max residual = 0.0003585774661
smoothSolver:  Solving for T, Initial residual = 8.90538637e-07, Final residual = 4.806225564e-11, No Iterations 3
Correcting epsilon1, mean residual = 1.163677208e-08, max residual = 6.372156537e-05
smoothSolver:  Solving for T, Initial residual = 1.390559771e-07, Final residual = 1.564486303e-10, No Iterations 2
Correcting epsilon1, mean residual = 1.892318155e-09, max residual = 1.133083415e-05
smoothSolver:  Solving for T, Initial residual = 2.265930152e-08, Final residual = 6.584671239e-10, No Iterations 1
Correcting epsilon1, mean residual = 3.290008268e-10, max residual = 2.080104392e-06
DICPCG:  Solving for p_rgh, Initial residual = 0.03520506157, Final residual = 8.626968157e-10, No Iterations 136
time step continuity errors : sum local = 9.460300873e-13, global = -2.331954341e-14, cumulative = 3.845775964e-13
DICPCG:  Solving for p_rgh, Initial residual = 0.007738012509, Final residual = 7.594794765e-10, No Iterations 106
time step continuity errors : sum local = 3.622595709e-13, global = 2.299268988e-15, cumulative = 3.868768653e-13
DICPCG:  Solving for p_rgh, Initial residual = 0.002505550283, Final residual = 9.259149286e-10, No Iterations 102
time step continuity errors : sum local = 4.3616141e-13, global = -9.767436004e-16, cumulative = 3.859001217e-13
ExecutionTime = 0.459301 s  ClockTime = 0 s

Courant Number mean: 0.0007246568296 max: 0.1131725152
Interface Courant Number mean: 7.492265437e-05 max: 0.1131725152
deltaT = 2.058531382e-07
Time = 1.621777276e-05s

smoothSolver:  Solving for alpha.metal, Initial residual = 2.158541997e-05, Final residual = 3.660529311e-12, No Iterations 2
Phase-1 volume fraction = 0.6666666667  Min(alpha.metal) = 0  Max(alpha.metal) = 1
MULES: Correcting alpha.metal
MULES: Correcting alpha.metal
Phase-1 volume fraction = 0.6666666667  Min(alpha.metal) = -1.983620532e-26  Max(alpha.metal) = 1
useLocalSearch: true
cos (theta): 	1
iterator_distance 	7.957747155e-07
Beam: 0
Beam: 1
Beam: 2
Beam: 3
Beam: 4
Beam: 5
Beam: 6
Beam: 7
Beam: 8
Beam: 9
Beam: 10
Beam: 11
Beam: 12
Beam: 13
Beam: 14
Beam: 15
Beam: 16
Beam: 17
Beam: 18
Beam: 19
Beam: 20
Beam: 21
Beam: 22
Beam: 23
Beam: 24
Beam: 25
Beam: 26
Beam: 27
Total Q deposited this timestep: 	5.30283121e-05
smoothSolver:  Solving for T, Initial residual = 0.003516044914, Final residual = 2.291972912e-10, No Iterations 6
Correcting epsilon1, mean residual = 2.484920812e-05, max residual = 0.1180077034
smoothSolver:  Solving for T, Initial residual = 0.0002999038304, Final residual = 5.026628945e-10, No Iterations 4
Correcting epsilon1, mean residual = 2.623867471e-06, max residual = 0.01011402153
smoothSolver:  Solving for T, Initial residual = 3.15066134e-05, Final residual = 5.132098161e-11, No Iterations 4
Correcting epsilon1, mean residual = 2.960471857e-07, max residual = 0.001265154444
smoothSolver:  Solving for T, Initial residual = 3.53511852e-06, Final residual = 1.178865749e-10, No Iterations 3
Correcting epsilon1, mean residual = 3.563019793e-08, max residual = 0.0001823760316
smoothSolver:  Solving for T, Initial residual = 4.233360364e-07, Final residual = 3.285131729e-10, No Iterations 2
Correcting epsilon1, mean residual = 4.535804096e-09, max residual = 2.630328661e-05
smoothSolver:  Solving for T, Initial residual = 5.390566237e-08, Final residual = 4.004926898e-11, No Iterations 2
Correcting epsilon1, mean residual = 5.971019919e-10, max residual = 3.78189146e-06
DICPCG:  Solving for p_rgh, Initial residual = 0.07418084112, Final residual = 8.691572276e-10, No Iterations 139
time step continuity errors : sum local = 3.670707873e-13, global = 6.956755288e-15, cumulative = 3.92856877e-13
DICPCG:  Solving for p_rgh, Initial residual = 0.003665340764, Final residual = 8.435594558e-10, No Iterations 103
time step continuity errors : sum local = 7.508355323e-13, global = 7.859695475e-16, cumulative = 3.936428466e-13
DICPCG:  Solving for p_rgh, Initial residual = 0.0009366155524, Final residual = 9.788769141e-10, No Iterations 97
time step continuity errors : sum local = 8.626026546e-13, global = -1.4812097e-14, cumulative = 3.788307496e-13
ExecutionTime = 0.509995 s  ClockTime = 1 s

Courant Number mean: 0.0007029761794 max: 0.1070778112
Interface Courant Number mean: 6.869083138e-05 max: 0.1070778112
deltaT = 1.921610717e-07
Time = 1.640993383e-05s

smoothSolver:  Solving for alpha.metal, Initial residual = 2.085390145e-05, Final residual = 4.005399595e-12, No Iterations 2
Phase-1 volume fraction = 0.6666666667  Min(alpha.metal) = 0  Max(alpha.metal) = 1
MULES: Correcting alpha.metal
MULES: Correcting alpha.metal
Phase-1 volume fraction = 0.6666666667  Min(alpha.metal) = -2.970095062e-26  Max(alpha.metal) = 1
useLocalSearch: true
cos (theta): 	1
iterator_distance 	7.957747155e-07
Beam: 0
Beam: 1
Beam: 2
Beam: 3
Beam: 4
Beam: 5
Beam: 6
Beam: 7
Beam: 8
Beam: 9
Beam: 10
Beam: 11
Beam: 12
Beam: 13
Beam: 14
Beam: 15
Beam: 16
Beam: 17
Beam: 18
Beam: 19
Beam: 20
Beam: 21
Beam: 22
Beam: 23
Beam: 24
Beam: 25
Beam: 26
Beam: 27
Total Q deposited this timestep: 	5.302831773e-05
smoothSolver:  Solving for T, Initial residual = 0.003079828999, Final residual = 1.395911242e-10, No Iterations 6
Correcting epsilon1, mean residual = 2.277281949e-05, max residual = 0.1086463336
smoothSolver:  Solving for T, Initial residual = 0.0002729035684, Final residual = 3.339629071e-10, No Iterations 4
Correcting epsilon1, mean residual = 9.405746424e-07, max residual = 0.006772137685
smoothSolver:  Solving for T, Initial residual = 1.094387396e-05, Final residual = 2.112742098e-10, No Iterations 3
Correcting epsilon1, mean residual = 1.152029808e-07, max residual = 0.0008294621085
smoothSolver:  Solving for T, Initial residual = 1.340529709e-06, Final residual = 6.889981438e-10, No Iterations 2
Correcting epsilon1, mean residual = 1.411546066e-08, max residual = 0.0001016333845
smoothSolver:  Solving for T, Initial residual = 1.648404496e-07, Final residual = 8.560514723e-11, No Iterations 2
Correcting epsilon1, mean residual = 1.723347818e-09, max residual = 1.24101886e-05
smoothSolver:  Solving for T, Initial residual = 2.012672577e-08, Final residual = 3.779335013e-10, No Iterations 1
Correcting epsilon1, mean residual = 2.184999448e-10, max residual = 1.574908135e-06
DICPCG:  Solving for p_rgh, Initial residual = 0.039586675, Final residual = 8.970415792e-10, No Iterations 126
time step continuity errors : sum local = 7.330491858e-13, global = -1.009180624e-14, cumulative = 3.687389433e-13
DICPCG:  Solving for p_rgh, Initial residual = 0.002911283774, Final residual = 9.816060221e-10, No Iterations 99
time step continuity errors : sum local = 9.472808727e-13, global = 6.910928776e-15, cumulative = 3.756498721e-13
DICPCG:  Solving for p_rgh, Initial residual = 0.000762654458, Final residual = 7.477674033e-10, No Iterations 97
time step continuity errors : sum local = 7.123430301e-13, global = -1.207114266e-14, cumulative = 3.635787295e-13
ExecutionTime = 0.557733 s  ClockTime = 1 s

Courant Number mean: 0.0007023923971 max: 0.1041000131
Interface Courant Number mean: 7.437134372e-05 max: 0.1040365761
deltaT = 1.845255324e-07
Time = 1.659445936e-05s

smoothSolver:  Solving for alpha.metal, Initial residual = 2.036111478e-05, Final residual = 4.163722311e-12, No Iterations 2
Phase-1 volume fraction = 0.6666666666  Min(alpha.metal) = 0  Max(alpha.metal) = 1
MULES: Correcting alpha.metal
MULES: Correcting alpha.metal
Phase-1 volume fraction = 0.6666666666  Min(alpha.metal) = -5.56285525e-25  Max(alpha.metal) = 1
useLocalSearch: true
cos (theta): 	1
iterator_distance 	7.957747155e-07
Beam: 0
Beam: 1
Beam: 2
Beam: 3
Beam: 4
Beam: 5
Beam: 6
Beam: 7
Beam: 8
Beam: 9
Beam: 10
Beam: 11
Beam: 12
Beam: 13
Beam: 14
Beam: 15
Beam: 16
Beam: 17
Beam: 18
Beam: 19
Beam: 20
Beam: 21
Beam: 22
Beam: 23
Beam: 24
Beam: 25
Beam: 26
Beam: 27
Total Q deposited this timestep: 	5.302833006e-05
smoothSolver:  Solving for T, Initial residual = 0.002795549922, Final residual = 1.018540628e-10, No Iterations 6
Correcting epsilon1, mean residual = 7.22582075e-06, max residual = 0.05202591103
smoothSolver:  Solving for T, Initial residual = 8.343583216e-05, Final residual = 6.175872642e-11, No Iterations 4
Correcting epsilon1, mean residual = 7.743789559e-07, max residual = 0.005575528581
smoothSolver:  Solving for T, Initial residual = 8.938704656e-06, Final residual = 1.438975575e-10, No Iterations 3
Correcting epsilon1, mean residual = 8.298309585e-08, max residual = 0.0005974785802
smoothSolver:  Solving for T, Initial residual = 9.579754671e-07, Final residual = 4.273402928e-10, No Iterations 2
Correcting epsilon1, mean residual = 8.895790828e-09, max residual = 6.405096349e-05
smoothSolver:  Solving for T, Initial residual = 1.030708402e-07, Final residual = 4.649255093e-11, No Iterations 2
Correcting epsilon1, mean residual = 9.497241955e-10, max residual = 6.839358304e-06
DICPCG:  Solving for p_rgh, Initial residual = 0.03530708608, Final residual = 7.718138445e-10, No Iterations 99
time step continuity errors : sum local = 7.023967209e-13, global = 3.574297192e-15, cumulative = 3.671530266e-13
DICPCG:  Solving for p_rgh, Initial residual = 0.00269091033, Final residual = 9.244333597e-10, No Iterations 114
time step continuity errors : sum local = 8.565139478e-13, global = -1.637400689e-14, cumulative = 3.507790198e-13
DICPCG:  Solving for p_rgh, Initial residual = 0.0007153331429, Final residual = 9.085388195e-10, No Iterations 96
time step continuity errors : sum local = 8.146821566e-13, global = -1.299105286e-14, cumulative = 3.377879669e-13
ExecutionTime = 0.604199 s  ClockTime = 1 s

Courant Number mean: 0.0007104903488 max: 0.1038642078
Interface Courant Number mean: 7.174386048e-05 max: 0.1019037529
deltaT = 1.774585971e-07
Time = 1.677191796e-05s

smoothSolver:  Solving for alpha.metal, Initial residual = 1.929645389e-05, Final residual = 3.831365027e-12, No Iterations 2
Phase-1 volume fraction = 0.6666666666  Min(alpha.metal) = 0  Max(alpha.metal) = 1
MULES: Correcting alpha.metal
MULES: Correcting alpha.metal
Phase-1 volume fraction = 0.6666666666  Min(alpha.metal) = -4.980576326e-25  Max(alpha.metal) = 1
useLocalSearch: true
cos (theta): 	1
iterator_distance 	7.957747155e-07
Beam: 0
Beam: 1
Beam: 2
Beam: 3
Beam: 4
Beam: 5
Beam: 6
Beam: 7
Beam: 8
Beam: 9
Beam: 10
Beam: 11
Beam: 12
Beam: 13
Beam: 14
Beam: 15
Beam: 16
Beam: 17
Beam: 18
Beam: 19
Beam: 20
Beam: 21
Beam: 22
Beam: 23
Beam: 24
Beam: 25
Beam: 26
Beam: 27
Total Q deposited this timestep: 	5.302835216e-05
smoothSolver:  Solving for T, Initial residual = 0.002549502624, Final residual = 9.747350727e-10, No Iterations 5
Correcting epsilon1, mean residual = 6.86280587e-06, max residual = 0.04941220295
smoothSolver:  Solving for T, Initial residual = 7.869915952e-05, Final residual = 4.740795955e-11, No Iterations 4
Correcting epsilon1, mean residual = 6.403218854e-07, max residual = 0.004610318915
smoothSolver:  Solving for T, Initial residual = 7.341600561e-06, Final residual = 9.930634036e-11, No Iterations 3
Correcting epsilon1, mean residual = 5.974122766e-08, max residual = 0.0004301368797
smoothSolver:  Solving for T, Initial residual = 6.850267578e-07, Final residual = 2.667581068e-10, No Iterations 2
Correcting epsilon1, mean residual = 5.575807399e-09, max residual = 4.014658773e-05
smoothSolver:  Solving for T, Initial residual = 6.417324902e-08, Final residual = 2.52932589e-11, No Iterations 2
Correcting epsilon1, mean residual = 5.17925127e-10, max residual = 3.729923395e-06
DICPCG:  Solving for p_rgh, Initial residual = 0.03573664016, Final residual = 9.641895471e-10, No Iterations 126
time step continuity errors : sum local = 8.289668926e-13, global = -1.74014837e-14, cumulative = 3.203864832e-13
DICPCG:  Solving for p_rgh, Initial residual = 0.002923172863, Final residual = 8.368580201e-10, No Iterations 111
time step continuity errors : sum local = 6.349421781e-13, global = -4.323101592e-15, cumulative = 3.160633816e-13
DICPCG:  Solving for p_rgh, Initial residual = 0.0007721586648, Final residual = 9.913307971e-10, No Iterations 96
time step continuity errors : sum local = 7.181918021e-13, global = -1.185963518e-14, cumulative = 3.042037464e-13
ExecutionTime = 0.652268 s  ClockTime = 1 s

Courant Number mean: 0.0007132772748 max: 0.1017584411
Interface Courant Number mean: 7.396155073e-05 max: 0.09841012967
deltaT = 1.741173264e-07
Time = 1.694603529e-05s

smoothSolver:  Solving for alpha.metal, Initial residual = 1.822626623e-05, Final residual = 3.495966775e-12, No Iterations 2
Phase-1 volume fraction = 0.6666666666  Min(alpha.metal) = 0  Max(alpha.metal) = 1
MULES: Correcting alpha.metal
MULES: Correcting alpha.metal
Phase-1 volume fraction = 0.6666666666  Min(alpha.metal) = -6.714012926e-26  Max(alpha.metal) = 1
useLocalSearch: true
cos (theta): 	1
iterator_distance 	7.957747155e-07
Beam: 0
Beam: 1
Beam: 2
Beam: 3
Beam: 4
Beam: 5
Beam: 6
Beam: 7
Beam: 8
Beam: 9
Beam: 10
Beam: 11
Beam: 12
Beam: 13
Beam: 14
Beam: 15
Beam: 16
Beam: 17
Beam: 18
Beam: 19
Beam: 20
Beam: 21
Beam: 22
Beam: 23
Beam: 24
Beam: 25
Beam: 26
Beam: 27
Total Q deposited this timestep: 	5.302838695e-05
smoothSolver:  Solving for T, Initial residual = 0.002382171823, Final residual = 8.307730072e-10, No Iterations 5
Correcting epsilon1, mean residual = 6.662082925e-06, max residual = 0.04796699786
smoothSolver:  Solving for T, Initial residual = 7.590842756e-05, Final residual = 9.39567601e-10, No Iterations 3
Correcting epsilon1, mean residual = 5.54938226e-07, max residual = 0.00399555627
smoothSolver:  Solving for T, Initial residual = 6.322932959e-06, Final residual = 7.879202477e-11, No Iterations 3
Correcting epsilon1, mean residual = 4.621898927e-08, max residual = 0.0003327786614
smoothSolver:  Solving for T, Initial residual = 5.266237324e-07, Final residual = 1.913454018e-10, No Iterations 2
Correcting epsilon1, mean residual = 3.851235033e-09, max residual = 2.772929667e-05
smoothSolver:  Solving for T, Initial residual = 4.404481828e-08, Final residual = 6.640561455e-10, No Iterations 1
Correcting epsilon1, mean residual = 3.348596787e-10, max residual = 2.414799005e-06
DICPCG:  Solving for p_rgh, Initial residual = 0.0414516685, Final residual = 9.093223179e-10, No Iterations 130
time step continuity errors : sum local = 6.527021094e-13, global = 9.47109485e-15, cumulative = 3.136748413e-13
DICPCG:  Solving for p_rgh, Initial residual = 0.004292695169, Final residual = 9.172415486e-10, No Iterations 116
time step continuity errors : sum local = 4.378044905e-13, global = -1.062293033e-15, cumulative = 3.126125482e-13
DICPCG:  Solving for p_rgh, Initial residual = 0.001180909533, Final residual = 8.994710037e-10, No Iterations 98
time step continuity errors : sum local = 3.98551969e-13, global = -1.12405266e-14, cumulative = 3.013720216e-13
ExecutionTime = 0.700534 s  ClockTime = 1 s

Courant Number mean: 0.0007262916353 max: 0.1003750867
Interface Courant Number mean: 7.259778087e-05 max: 0.09584423202
deltaT = 1.73390323e-07
Time = 1.711942561e-05s

smoothSolver:  Solving for alpha.metal, Initial residual = 1.744699069e-05, Final residual = 3.187829996e-12, No Iterations 2
Phase-1 volume fraction = 0.6666666666  Min(alpha.metal) = 0  Max(alpha.metal) = 1
MULES: Correcting alpha.metal
MULES: Correcting alpha.metal
Phase-1 volume fraction = 0.6666666666  Min(alpha.metal) = -9.110783874e-26  Max(alpha.metal) = 1
useLocalSearch: true
cos (theta): 	1
iterator_distance 	7.957747155e-07
Beam: 0
Beam: 1
Beam: 2
Beam: 3
Beam: 4
Beam: 5
Beam: 6
Beam: 7
Beam: 8
Beam: 9
Beam: 10
Beam: 11
Beam: 12
Beam: 13
Beam: 14
Beam: 15
Beam: 16
Beam: 17
Beam: 18
Beam: 19
Beam: 20
Beam: 21
Beam: 22
Beam: 23
Beam: 24
Beam: 25
Beam: 26
Beam: 27
Total Q deposited this timestep: 	5.302831244e-05
smoothSolver:  Solving for T, Initial residual = 0.002575556586, Final residual = 7.741798053e-10, No Iterations 5
Correcting epsilon1, mean residual = 6.537912457e-06, max residual = 0.04707297349
smoothSolver:  Solving for T, Initial residual = 7.412565604e-05, Final residual = 9.021099358e-10, No Iterations 3
Correcting epsilon1, mean residual = 4.963712972e-07, max residual = 0.003573874497
smoothSolver:  Solving for T, Initial residual = 5.62695611e-06, Final residual = 6.892601631e-11, No Iterations 3
Correcting epsilon1, mean residual = 3.767958322e-08, max residual = 0.0002712946542
smoothSolver:  Solving for T, Initial residual = 4.271479026e-07, Final residual = 1.520590581e-10, No Iterations 2
Correcting epsilon1, mean residual = 2.86171683e-09, max residual = 2.060469762e-05
smoothSolver:  Solving for T, Initial residual = 3.256697562e-08, Final residual = 4.816549171e-10, No Iterations 1
Correcting epsilon1, mean residual = 2.275682981e-10, max residual = 1.641264731e-06
DICPCG:  Solving for p_rgh, Initial residual = 0.06328030177, Final residual = 9.391274025e-10, No Iterations 139
time step continuity errors : sum local = 4.254446711e-13, global = -3.465599636e-15, cumulative = 2.97906422e-13
DICPCG:  Solving for p_rgh, Initial residual = 0.002718935396, Final residual = 8.773174589e-10, No Iterations 113
time step continuity errors : sum local = 6.602586571e-13, global = 1.61731523e-15, cumulative = 2.995237372e-13
DICPCG:  Solving for p_rgh, Initial residual = 0.0006908879235, Final residual = 9.711758932e-10, No Iterations 95
time step continuity errors : sum local = 7.550368361e-13, global = -2.643256514e-14, cumulative = 2.730911721e-13
ExecutionTime = 0.747836 s  ClockTime = 1 s

Courant Number mean: 0.0007485046949 max: 0.0999539278
Interface Courant Number mean: 6.11301894e-05 max: 0.09391616326
deltaT = 1.73390323e-07
Time = 1.729281593e-05s

smoothSolver:  Solving for alpha.metal, Initial residual = 1.664435659e-05, Final residual = 2.865367942e-12, No Iterations 2
Phase-1 volume fraction = 0.6666666666  Min(alpha.metal) = 0  Max(alpha.metal) = 1
MULES: Correcting alpha.metal
MULES: Correcting alpha.metal
Phase-1 volume fraction = 0.6666666666  Min(alpha.metal) = -1.257213416e-25  Max(alpha.metal) = 1
useLocalSearch: true
cos (theta): 	1
iterator_distance 	7.957747155e-07
Beam: 0
Beam: 1
Beam: 2
Beam: 3
Beam: 4
Beam: 5
Beam: 6
Beam: 7
Beam: 8
Beam: 9
Beam: 10
Beam: 11
Beam: 12
Beam: 13
Beam: 14
Beam: 15
Beam: 16
Beam: 17
Beam: 18
Beam: 19
Beam: 20
Beam: 21
Beam: 22
Beam: 23
Beam: 24
Beam: 25
Beam: 26
Beam: 27
Total Q deposited this timestep: 	5.302831574e-05
smoothSolver:  Solving for T, Initial residual = 0.002415689487, Final residual = 7.352193601e-10, No Iterations 5
Correcting epsilon1, mean residual = 7.135871059e-06, max residual = 0.04597006224
smoothSolver:  Solving for T, Initial residual = 8.044358826e-05, Final residual = 9.763829806e-10, No Iterations 3
Correcting epsilon1, mean residual = 5.044092023e-07, max residual = 0.00293115894
smoothSolver:  Solving for T, Initial residual = 5.688862798e-06, Final residual = 4.565692696e-11, No Iterations 3
Correcting epsilon1, mean residual = 6.208928822e-08, max residual = 0.0002376286829
smoothSolver:  Solving for T, Initial residual = 6.999842482e-07, Final residual = 1.554050191e-10, No Iterations 2
Correcting epsilon1, mean residual = 9.404339996e-09, max residual = 4.102877951e-05
smoothSolver:  Solving for T, Initial residual = 1.061276964e-07, Final residual = 2.428461624e-11, No Iterations 2
Correcting epsilon1, mean residual = 1.555723017e-09, max residual = 7.360945152e-06
DICPCG:  Solving for p_rgh, Initial residual = 0.03480919807, Final residual = 9.181322262e-10, No Iterations 135
time step continuity errors : sum local = 7.279912403e-13, global = 2.244257766e-15, cumulative = 2.753354299e-13
DICPCG:  Solving for p_rgh, Initial residual = 0.001677684432, Final residual = 8.893450977e-10, No Iterations 112
time step continuity errors : sum local = 1.061716829e-12, global = -8.966027579e-17, cumulative = 2.752457696e-13
DICPCG:  Solving for p_rgh, Initial residual = 0.0004396745983, Final residual = 8.548891304e-10, No Iterations 94
time step continuity errors : sum local = 1.044881507e-12, global = -4.456105407e-14, cumulative = 2.306847155e-13
ExecutionTime = 0.795148 s  ClockTime = 1 s

Courant Number mean: 0.0007709322787 max: 0.09919680994
Interface Courant Number mean: 6.068113083e-05 max: 0.09451844583
deltaT = 1.744877301e-07
Time = 1.746730366e-05s

smoothSolver:  Solving for alpha.metal, Initial residual = 1.636344449e-05, Final residual = 2.765767424e-12, No Iterations 2
Phase-1 volume fraction = 0.6666666666  Min(alpha.metal) = 0  Max(alpha.metal) = 1
MULES: Correcting alpha.metal
MULES: Correcting alpha.metal
Phase-1 volume fraction = 0.6666666666  Min(alpha.metal) = -1.723906225e-25  Max(alpha.metal) = 1
useLocalSearch: true
cos (theta): 	1
iterator_distance 	7.957747155e-07
Beam: 0
Beam: 1
Beam: 2
Beam: 3
Beam: 4
Beam: 5
Beam: 6
Beam: 7
Beam: 8
Beam: 9
Beam: 10
Beam: 11
Beam: 12
Beam: 13
Beam: 14
Beam: 15
Beam: 16
Beam: 17
Beam: 18
Beam: 19
Beam: 20
Beam: 21
Beam: 22
Beam: 23
Beam: 24
Beam: 25
Beam: 26
Beam: 27
Total Q deposited this timestep: 	5.302832092e-05
smoothSolver:  Solving for T, Initial residual = 0.002292919121, Final residual = 7.238142566e-10, No Iterations 5
Correcting epsilon1, mean residual = 7.327315668e-06, max residual = 0.04465451608
smoothSolver:  Solving for T, Initial residual = 8.218494447e-05, Final residual = 4.476143293e-11, No Iterations 4
Correcting epsilon1, mean residual = 3.735902081e-07, max residual = 0.002472637698
smoothSolver:  Solving for T, Initial residual = 4.193647024e-06, Final residual = 4.439454805e-11, No Iterations 3
Correcting epsilon1, mean residual = 3.985945782e-08, max residual = 0.0001697194605
smoothSolver:  Solving for T, Initial residual = 4.472103171e-07, Final residual = 1.003540418e-10, No Iterations 2
Correcting epsilon1, mean residual = 5.684185767e-09, max residual = 2.423058337e-05
smoothSolver:  Solving for T, Initial residual = 6.383247025e-08, Final residual = 8.009657665e-10, No Iterations 1
Correcting epsilon1, mean residual = 9.43745333e-10, max residual = 4.484836141e-06
DICPCG:  Solving for p_rgh, Initial residual = 0.02154114419, Final residual = 8.140523266e-10, No Iterations 135
time step continuity errors : sum local = 1.017693857e-12, global = -5.470727847e-15, cumulative = 2.252139877e-13
DICPCG:  Solving for p_rgh, Initial residual = 0.0009391595275, Final residual = 8.472795514e-10, No Iterations 98
time step continuity errors : sum local = 1.893941437e-12, global = -2.250235457e-13, cumulative = 1.90441942e-16
DICPCG:  Solving for p_rgh, Initial residual = 0.0002431349966, Final residual = 9.21306479e-10, No Iterations 92
time step continuity errors : sum local = 2.103971928e-12, global = -1.099929405e-13, cumulative = -1.098024986e-13
ExecutionTime = 0.842202 s  ClockTime = 1 s

Courant Number mean: 0.0007964420747 max: 0.09839957006
Interface Courant Number mean: 6.03116542e-05 max: 0.09566550176
deltaT = 1.771087904e-07
Time = 1.764441245e-05s

smoothSolver:  Solving for alpha.metal, Initial residual = 1.623778726e-05, Final residual = 2.781496708e-12, No Iterations 2
Phase-1 volume fraction = 0.6666666666  Min(alpha.metal) = 0  Max(alpha.metal) = 1
MULES: Correcting alpha.metal
MULES: Correcting alpha.metal
Phase-1 volume fraction = 0.6666666666  Min(alpha.metal) = -2.364342949e-25  Max(alpha.metal) = 1
useLocalSearch: true
cos (theta): 	1
iterator_distance 	7.957747155e-07
Beam: 0
Beam: 1
Beam: 2
Beam: 3
Beam: 4
Beam: 5
Beam: 6
Beam: 7
Beam: 8
Beam: 9
Beam: 10
Beam: 11
Beam: 12
Beam: 13
Beam: 14
Beam: 15
Beam: 16
Beam: 17
Beam: 18
Beam: 19
Beam: 20
Beam: 21
Beam: 22
Beam: 23
Beam: 24
Beam: 25
Beam: 26
Beam: 27
Total Q deposited this timestep: 	5.302832966e-05
smoothSolver:  Solving for T, Initial residual = 0.002211986444, Final residual = 7.463264256e-10, No Iterations 5
Correcting epsilon1, mean residual = 6.985410263e-06, max residual = 0.04331597259
smoothSolver:  Solving for T, Initial residual = 7.796071569e-05, Final residual = 4.50329614e-11, No Iterations 4
Correcting epsilon1, mean residual = 3.638989599e-07, max residual = 0.002279394769
smoothSolver:  Solving for T, Initial residual = 4.065234275e-06, Final residual = 3.969859566e-11, No Iterations 3
Correcting epsilon1, mean residual = 3.97466938e-08, max residual = 0.0001554478842
smoothSolver:  Solving for T, Initial residual = 4.43716044e-07, Final residual = 1.038068853e-10, No Iterations 2
Correcting epsilon1, mean residual = 5.8391624e-09, max residual = 2.604766145e-05
smoothSolver:  Solving for T, Initial residual = 6.5238936e-08, Final residual = 8.376484813e-10, No Iterations 1
Correcting epsilon1, mean residual = 9.873233576e-10, max residual = 4.792184341e-06
DICPCG:  Solving for p_rgh, Initial residual = 0.01134813681, Final residual = 9.732116079e-10, No Iterations 123
time step continuity errors : sum local = 2.288791085e-12, global = 6.024873023e-15, cumulative = -1.037776255e-13
DICPCG:  Solving for p_rgh, Initial residual = 0.0008042961699, Final residual = 9.181702719e-10, No Iterations 91
time step continuity errors : sum local = 2.606525824e-12, global = -4.437219481e-14, cumulative = -1.481498204e-13
DICPCG:  Solving for p_rgh, Initial residual = 0.0002024143853, Final residual = 9.05955223e-10, No Iterations 91
time step continuity errors : sum local = 2.604134047e-12, global = -1.30396614e-13, cumulative = -2.785464343e-13
ExecutionTime = 0.888326 s  ClockTime = 1 s

Courant Number mean: 0.0008280900259 max: 0.09787343456
Interface Courant Number mean: 6.018595595e-05 max: 0.09696356816
deltaT = 1.806043587e-07
Time = 1.782501681e-05s

smoothSolver:  Solving for alpha.metal, Initial residual = 1.593726067e-05, Final residual = 2.771525254e-12, No Iterations 2
Phase-1 volume fraction = 0.6666666666  Min(alpha.metal) = 0  Max(alpha.metal) = 1
MULES: Correcting alpha.metal
MULES: Correcting alpha.metal
Phase-1 volume fraction = 0.6666666666  Min(alpha.metal) = -3.195398253e-25  Max(alpha.metal) = 1
useLocalSearch: true
cos (theta): 	1
iterator_distance 	7.957747155e-07
Beam: 0
Beam: 1
Beam: 2
Beam: 3
Beam: 4
Beam: 5
Beam: 6
Beam: 7
Beam: 8
Beam: 9
Beam: 10
Beam: 11
Beam: 12
Beam: 13
Beam: 14
Beam: 15
Beam: 16
Beam: 17
Beam: 18
Beam: 19
Beam: 20
Beam: 21
Beam: 22
Beam: 23
Beam: 24
Beam: 25
Beam: 26
Beam: 27
Total Q deposited this timestep: 	5.302834218e-05
smoothSolver:  Solving for T, Initial residual = 0.002163881847, Final residual = 7.906803342e-10, No Iterations 5
Correcting epsilon1, mean residual = 6.69387247e-06, max residual = 0.0420335913
smoothSolver:  Solving for T, Initial residual = 7.433082234e-05, Final residual = 4.709523434e-11, No Iterations 4
Correcting epsilon1, mean residual = 3.530402048e-07, max residual = 0.002123880217
smoothSolver:  Solving for T, Initial residual = 3.92475064e-06, Final residual = 3.79314265e-11, No Iterations 3
Correcting epsilon1, mean residual = 3.939713906e-08, max residual = 0.0001446582997
smoothSolver:  Solving for T, Initial residual = 4.375778328e-07, Final residual = 1.082361628e-10, No Iterations 2
Correcting epsilon1, mean residual = 5.95137956e-09, max residual = 2.733613291e-05
smoothSolver:  Solving for T, Initial residual = 6.614948478e-08, Final residual = 8.742181048e-10, No Iterations 1
Correcting epsilon1, mean residual = 1.026598853e-09, max residual = 5.054175665e-06
DICPCG:  Solving for p_rgh, Initial residual = 0.008939483528, Final residual = 9.622859056e-10, No Iterations 121
time step continuity errors : sum local = 2.859006992e-12, global = -2.59638796e-14, cumulative = -3.04510314e-13
DICPCG:  Solving for p_rgh, Initial residual = 0.0006743436857, Final residual = 8.693482202e-10, No Iterations 91
time step continuity errors : sum local = 3.087121885e-12, global = -6.866120793e-14, cumulative = -3.731715219e-13
DICPCG:  Solving for p_rgh, Initial residual = 0.0001723398406, Final residual = 9.763322197e-10, No Iterations 88
time step continuity errors : sum local = 3.489897983e-12, global = -1.642585706e-13, cumulative = -5.374300925e-13
ExecutionTime = 0.934026 s  ClockTime = 1 s

Courant Number mean: 0.0008634841699 max: 0.09805910074
Interface Courant Number mean: 6.007915865e-05 max: 0.09805910074
deltaT = 1.838366514e-07
Time = 1.800885346e-05s

smoothSolver:  Solving for alpha.metal, Initial residual = 1.535580648e-05, Final residual = 2.69864651e-12, No Iterations 2
Phase-1 volume fraction = 0.6666666666  Min(alpha.metal) = 0  Max(alpha.metal) = 1
MULES: Correcting alpha.metal
MULES: Correcting alpha.metal
Phase-1 volume fraction = 0.6666666666  Min(alpha.metal) = -1.56964074e-23  Max(alpha.metal) = 1
useLocalSearch: true
cos (theta): 	1
iterator_distance 	7.957747155e-07
Beam: 0
Beam: 1
Beam: 2
Beam: 3
Beam: 4
Beam: 5
Beam: 6
Beam: 7
Beam: 8
Beam: 9
Beam: 10
Beam: 11
Beam: 12
Beam: 13
Beam: 14
Beam: 15
Beam: 16
Beam: 17
Beam: 18
Beam: 19
Beam: 20
Beam: 21
Beam: 22
Beam: 23
Beam: 24
Beam: 25
Beam: 26
Beam: 27
Total Q deposited this timestep: 	5.302835755e-05
smoothSolver:  Solving for T, Initial residual = 0.002113364827, Final residual = 8.297135685e-10, No Iterations 5
Correcting epsilon1, mean residual = 6.395516209e-06, max residual = 0.04055959835
smoothSolver:  Solving for T, Initial residual = 7.065310477e-05, Final residual = 4.906540394e-11, No Iterations 4
Correcting epsilon1, mean residual = 3.374062984e-07, max residual = 0.001961110462
smoothSolver:  Solving for T, Initial residual = 3.732341926e-06, Final residual = 3.683440026e-11, No Iterations 3
Correcting epsilon1, mean residual = 3.832609367e-08, max residual = 0.0001428223951
smoothSolver:  Solving for T, Initial residual = 4.234678072e-07, Final residual = 1.100914305e-10, No Iterations 2
Correcting epsilon1, mean residual = 5.934622189e-09, max residual = 2.789283071e-05
smoothSolver:  Solving for T, Initial residual = 6.561399591e-08, Final residual = 8.893604277e-10, No Iterations 1
Correcting epsilon1, mean residual = 1.042197148e-09, max residual = 5.190140318e-06
DICPCG:  Solving for p_rgh, Initial residual = 0.00737593136, Final residual = 8.707397217e-10, No Iterations 121
time step continuity errors : sum local = 3.192824347e-12, global = -1.668056509e-14, cumulative = -5.541106576e-13
DICPCG:  Solving for p_rgh, Initial residual = 0.0005834175814, Final residual = 8.860615587e-10, No Iterations 91
time step continuity errors : sum local = 3.789801481e-12, global = -1.206203056e-13, cumulative = -6.747309631e-13
DICPCG:  Solving for p_rgh, Initial residual = 0.0001487321906, Final residual = 9.228923195e-10, No Iterations 76
time step continuity errors : sum local = 3.959622148e-12, global = -3.547574944e-14, cumulative = -7.102067126e-13
ExecutionTime = 0.979326 s  ClockTime = 1 s

Courant Number mean: 0.0008994786098 max: 0.09828852929
Interface Courant Number mean: 5.963875731e-05 max: 0.09828852929
deltaT = 1.867679876e-07
Time = 1.819562145e-05s

smoothSolver:  Solving for alpha.metal, Initial residual = 1.533071884e-05, Final residual = 3.126134031e-12, No Iterations 2
Phase-1 volume fraction = 0.6666666666  Min(alpha.metal) = 0  Max(alpha.metal) = 1
MULES: Correcting alpha.metal
MULES: Correcting alpha.metal
Phase-1 volume fraction = 0.6666666666  Min(alpha.metal) = -2.007718982e-22  Max(alpha.metal) = 1
useLocalSearch: true
cos (theta): 	1
iterator_distance 	7.957747155e-07
Beam: 0
Beam: 1
Beam: 2
Beam: 3
Beam: 4
Beam: 5
Beam: 6
Beam: 7
Beam: 8
Beam: 9
Beam: 10
Beam: 11
Beam: 12
Beam: 13
Beam: 14
Beam: 15
Beam: 16
Beam: 17
Beam: 18
Beam: 19
Beam: 20
Beam: 21
Beam: 22
Beam: 23
Beam: 24
Beam: 25
Beam: 26
Beam: 27
Total Q deposited this timestep: 	5.302837493e-05
smoothSolver:  Solving for T, Initial residual = 0.002061137585, Final residual = 8.61027526e-10, No Iterations 5
Correcting epsilon1, mean residual = 6.082350383e-06, max residual = 0.0388780192
smoothSolver:  Solving for T, Initial residual = 6.68413702e-05, Final residual = 5.028683089e-11, No Iterations 4
Correcting epsilon1, mean residual = 3.179250026e-07, max residual = 0.001792129313
smoothSolver:  Solving for T, Initial residual = 3.49895939e-06, Final residual = 3.548972361e-11, No Iterations 3
Correcting epsilon1, mean residual = 3.667031797e-08, max residual = 0.0001429435462
smoothSolver:  Solving for T, Initial residual = 4.030143555e-07, Final residual = 1.092390678e-10, No Iterations 2
Correcting epsilon1, mean residual = 5.806640659e-09, max residual = 2.780997526e-05
smoothSolver:  Solving for T, Initial residual = 6.385377276e-08, Final residual = 8.847805515e-10, No Iterations 1
Correcting epsilon1, mean residual = 1.036133945e-09, max residual = 5.209630731e-06
DICPCG:  Solving for p_rgh, Initial residual = 0.006112125677, Final residual = 8.481089796e-10, No Iterations 120
time step continuity errors : sum local = 3.714370865e-12, global = -2.076422802e-14, cumulative = -7.309709406e-13
DICPCG:  Solving for p_rgh, Initial residual = 0.000526997595, Final residual = 7.46503989e-10, No Iterations 92
time step continuity errors : sum local = 3.704106643e-12, global = -9.114016623e-14, cumulative = -8.221111068e-13
DICPCG:  Solving for p_rgh, Initial residual = 0.0001297688657, Final residual = 9.491320184e-10, No Iterations 75
time step continuity errors : sum local = 4.714924824e-12, global = -3.237106679e-13, cumulative = -1.145821775e-12
ExecutionTime = 1.024674 s  ClockTime = 1 s

Courant Number mean: 0.0009377826304 max: 0.1001664562
Interface Courant Number mean: 5.941841806e-05 max: 0.09763041168
deltaT = 1.863425479e-07
Time = 1.8381964e-05s

smoothSolver:  Solving for alpha.metal, Initial residual = 1.572652527e-05, Final residual = 3.505844127e-12, No Iterations 2
Phase-1 volume fraction = 0.6666666666  Min(alpha.metal) = 0  Max(alpha.metal) = 1
MULES: Correcting alpha.metal
MULES: Correcting alpha.metal
Phase-1 volume fraction = 0.6666666666  Min(alpha.metal) = -8.260207904e-23  Max(alpha.metal) = 1
useLocalSearch: true
cos (theta): 	1
iterator_distance 	7.957747155e-07
Beam: 0
Beam: 1
Beam: 2
Beam: 3
Beam: 4
Beam: 5
Beam: 6
Beam: 7
Beam: 8
Beam: 9
Beam: 10
Beam: 11
Beam: 12
Beam: 13
Beam: 14
Beam: 15
Beam: 16
Beam: 17
Beam: 18
Beam: 19
Beam: 20
Beam: 21
Beam: 22
Beam: 23
Beam: 24
Beam: 25
Beam: 26
Beam: 27
Total Q deposited this timestep: 	5.302839293e-05
smoothSolver:  Solving for T, Initial residual = 0.0019755212, Final residual = 8.071847686e-10, No Iterations 5
Correcting epsilon1, mean residual = 5.674126897e-06, max residual = 0.03651109374
smoothSolver:  Solving for T, Initial residual = 6.202525072e-05, Final residual = 9.615391513e-10, No Iterations 3
Correcting epsilon1, mean residual = 2.814345015e-07, max residual = 0.001522542522
smoothSolver:  Solving for T, Initial residual = 3.081648878e-06, Final residual = 8.538847382e-10, No Iterations 2
Correcting epsilon1, mean residual = 3.254534829e-08, max residual = 0.0001341466685
smoothSolver:  Solving for T, Initial residual = 3.56308014e-07, Final residual = 9.638968993e-11, No Iterations 2
Correcting epsilon1, mean residual = 5.199668011e-09, max residual = 2.550715583e-05
smoothSolver:  Solving for T, Initial residual = 5.686629435e-08, Final residual = 7.903031856e-10, No Iterations 1
Correcting epsilon1, mean residual = 9.291270949e-10, max residual = 4.724805141e-06
DICPCG:  Solving for p_rgh, Initial residual = 0.004981978474, Final residual = 8.822759556e-10, No Iterations 119
time step continuity errors : sum local = 4.359636084e-12, global = -7.984964781e-14, cumulative = -1.225671423e-12
DICPCG:  Solving for p_rgh, Initial residual = 0.0004725597121, Final residual = 8.806325176e-10, No Iterations 92
time step continuity errors : sum local = 4.790979662e-12, global = -8.728570166e-14, cumulative = -1.312957124e-12
DICPCG:  Solving for p_rgh, Initial residual = 0.000112338606, Final residual = 8.292620424e-10, No Iterations 75
time step continuity errors : sum local = 4.510149877e-12, global = -2.107090701e-13, cumulative = -1.523666194e-12
ExecutionTime = 1.071171 s  ClockTime = 1 s

Courant Number mean: 0.0009577641382 max: 0.1054048634
Interface Courant Number mean: 5.795146384e-05 max: 0.09462064551
deltaT = 1.766624156e-07
Time = 1.855862641e-05s

smoothSolver:  Solving for alpha.metal, Initial residual = 1.502022171e-05, Final residual = 2.890491687e-12, No Iterations 2
Phase-1 volume fraction = 0.6666666666  Min(alpha.metal) = 0  Max(alpha.metal) = 1
MULES: Correcting alpha.metal
MULES: Correcting alpha.metal
Phase-1 volume fraction = 0.6666666666  Min(alpha.metal) = -3.114317966e-23  Max(alpha.metal) = 1
useLocalSearch: true
cos (theta): 	1
iterator_distance 	7.957747155e-07
Beam: 0
Beam: 1
Beam: 2
Beam: 3
Beam: 4
Beam: 5
Beam: 6
Beam: 7
Beam: 8
Beam: 9
Beam: 10
Beam: 11
Beam: 12
Beam: 13
Beam: 14
Beam: 15
Beam: 16
Beam: 17
Beam: 18
Beam: 19
Beam: 20
Beam: 21
Beam: 22
Beam: 23
Beam: 24
Beam: 25
Beam: 26
Beam: 27
Total Q deposited this timestep: 	5.302840957e-05
smoothSolver:  Solving for T, Initial residual = 0.001801923496, Final residual = 5.688241652e-10, No Iterations 5
Correcting epsilon1, mean residual = 5.054031464e-06, max residual = 0.03272918247
smoothSolver:  Solving for T, Initial residual = 5.496016541e-05, Final residual = 6.675033009e-10, No Iterations 3
Correcting epsilon1, mean residual = 2.08292825e-07, max residual = 0.001020274977
smoothSolver:  Solving for T, Initial residual = 2.268198348e-06, Final residual = 5.022325145e-10, No Iterations 2
Correcting epsilon1, mean residual = 2.367791909e-08, max residual = 0.0001077105136
smoothSolver:  Solving for T, Initial residual = 2.577284995e-07, Final residual = 6.024209473e-11, No Iterations 2
Correcting epsilon1, mean residual = 3.714784286e-09, max residual = 1.884078875e-05
smoothSolver:  Solving for T, Initial residual = 4.040276157e-08, Final residual = 5.204149961e-10, No Iterations 1
Correcting epsilon1, mean residual = 6.342622333e-10, max residual = 3.276317242e-06
DICPCG:  Solving for p_rgh, Initial residual = 0.004079171343, Final residual = 8.608978023e-10, No Iterations 112
time step continuity errors : sum local = 4.342521806e-12, global = 5.07399879e-14, cumulative = -1.472926206e-12
DICPCG:  Solving for p_rgh, Initial residual = 0.0004091402606, Final residual = 8.723822505e-10, No Iterations 92
time step continuity errors : sum local = 4.695420156e-12, global = -8.162568972e-14, cumulative = -1.554551896e-12
DICPCG:  Solving for p_rgh, Initial residual = 9.350413084e-05, Final residual = 9.099969072e-10, No Iterations 72
time step continuity errors : sum local = 4.893544643e-12, global = 2.23282684e-14, cumulative = -1.532223628e-12
ExecutionTime = 1.116193 s  ClockTime = 1 s

Courant Number mean: 0.0009264346987 max: 0.1038899882
Interface Courant Number mean: 5.351542272e-05 max: 0.0867947257
deltaT = 1.700237444e-07
Time = 1.872865016e-05s

smoothSolver:  Solving for alpha.metal, Initial residual = 1.424256653e-05, Final residual = 2.517416004e-12, No Iterations 2
Phase-1 volume fraction = 0.6666666666  Min(alpha.metal) = 0  Max(alpha.metal) = 1
MULES: Correcting alpha.metal
MULES: Correcting alpha.metal
Phase-1 volume fraction = 0.6666666666  Min(alpha.metal) = -3.045103672e-23  Max(alpha.metal) = 1
useLocalSearch: true
cos (theta): 	1
iterator_distance 	7.957747155e-07
Beam: 0
Beam: 1
Beam: 2
Beam: 3
Beam: 4
Beam: 5
Beam: 6
Beam: 7
Beam: 8
Beam: 9
Beam: 10
Beam: 11
Beam: 12
Beam: 13
Beam: 14
Beam: 15
Beam: 16
Beam: 17
Beam: 18
Beam: 19
Beam: 20
Beam: 21
Beam: 22
Beam: 23
Beam: 24
Beam: 25
Beam: 26
Beam: 27
Total Q deposited this timestep: 	5.302842429e-05
smoothSolver:  Solving for T, Initial residual = 0.001674087911, Final residual = 4.365748876e-10, No Iterations 5
Correcting epsilon1, mean residual = 4.29972316e-06, max residual = 0.02783581659
smoothSolver:  Solving for T, Initial residual = 4.652241911e-05, Final residual = 4.722387141e-10, No Iterations 3
Correcting epsilon1, mean residual = 5.538522402e-08, max residual = 0.0003987748943
smoothSolver:  Solving for T, Initial residual = 5.99931168e-07, Final residual = 2.096130713e-10, No Iterations 2
Correcting epsilon1, mean residual = 8.309867026e-09, max residual = 5.983258406e-05
smoothSolver:  Solving for T, Initial residual = 9.007313765e-08, Final residual = 3.180328402e-11, No Iterations 2
Correcting epsilon1, mean residual = 1.244277921e-09, max residual = 8.959334511e-06
DICPCG:  Solving for p_rgh, Initial residual = 0.00342394281, Final residual = 8.886897715e-10, No Iterations 111
time step continuity errors : sum local = 4.521664965e-12, global = 1.867770063e-14, cumulative = -1.513545927e-12
DICPCG:  Solving for p_rgh, Initial residual = 0.0003555253992, Final residual = 7.963624804e-10, No Iterations 92
time step continuity errors : sum local = 4.256274405e-12, global = -7.318225031e-14, cumulative = -1.586728177e-12
DICPCG:  Solving for p_rgh, Initial residual = 8.032279334e-05, Final residual = 9.893550209e-10, No Iterations 68
time step continuity errors : sum local = 5.280178838e-12, global = -1.403899141e-13, cumulative = -1.727118092e-12
ExecutionTime = 1.160051 s  ClockTime = 1 s

Courant Number mean: 0.0009070991613 max: 0.1027491756
Interface Courant Number mean: 5.948540188e-05 max: 0.08057461354
deltaT = 1.651856704e-07
Time = 1.889383583e-05s

smoothSolver:  Solving for alpha.metal, Initial residual = 1.355088291e-05, Final residual = 2.341783214e-12, No Iterations 2
Phase-1 volume fraction = 0.6666666666  Min(alpha.metal) = 0  Max(alpha.metal) = 1
MULES: Correcting alpha.metal
MULES: Correcting alpha.metal
Phase-1 volume fraction = 0.6666666666  Min(alpha.metal) = -2.334868118e-23  Max(alpha.metal) = 1
useLocalSearch: true
cos (theta): 	1
iterator_distance 	7.957747155e-07
Beam: 0
Beam: 1
Beam: 2
Beam: 3
Beam: 4
Beam: 5
Beam: 6
Beam: 7
Beam: 8
Beam: 9
Beam: 10
Beam: 11
Beam: 12
Beam: 13
Beam: 14
Beam: 15
Beam: 16
Beam: 17
Beam: 18
Beam: 19
Beam: 20
Beam: 21
Beam: 22
Beam: 23
Beam: 24
Beam: 25
Beam: 26
Beam: 27
Total Q deposited this timestep: 	5.302843679e-05
smoothSolver:  Solving for T, Initial residual = 0.001573853892, Final residual = 3.534587519e-10, No Iterations 5
Correcting epsilon1, mean residual = 3.790246808e-07, max residual = 0.002728978296
smoothSolver:  Solving for T, Initial residual = 4.084165114e-06, Final residual = 3.406026602e-11, No Iterations 3
Correcting epsilon1, mean residual = 5.505986436e-08, max residual = 0.0003964310728
smoothSolver:  Solving for T, Initial residual = 5.93082447e-07, Final residual = 1.877124978e-10, No Iterations 2
Correcting epsilon1, mean residual = 8.000046624e-09, max residual = 5.760099542e-05
smoothSolver:  Solving for T, Initial residual = 8.62760665e-08, Final residual = 2.742979943e-11, No Iterations 2
Correcting epsilon1, mean residual = 1.160313127e-09, max residual = 8.3548887e-06
DICPCG:  Solving for p_rgh, Initial residual = 0.003090314439, Final residual = 9.464771999e-10, No Iterations 110
time step continuity errors : sum local = 4.840560025e-12, global = -6.352014254e-15, cumulative = -1.733470106e-12
DICPCG:  Solving for p_rgh, Initial residual = 0.0003145704739, Final residual = 9.399015331e-10, No Iterations 91
time step continuity errors : sum local = 4.969451033e-12, global = -9.535732267e-14, cumulative = -1.828827428e-12
DICPCG:  Solving for p_rgh, Initial residual = 6.965477979e-05, Final residual = 7.700836639e-10, No Iterations 68
time step continuity errors : sum local = 4.063451441e-12, global = 2.662231157e-14, cumulative = -1.802205117e-12
ExecutionTime = 1.203416 s  ClockTime = 1 s

Courant Number mean: 0.0008951020671 max: 0.1016082109
Interface Courant Number mean: 5.705399389e-05 max: 0.07537298524
deltaT = 1.625374031e-07
Time = 1.905637323e-05s

smoothSolver:  Solving for alpha.metal, Initial residual = 1.303299929e-05, Final residual = 2.390246414e-12, No Iterations 2
Phase-1 volume fraction = 0.6666666666  Min(alpha.metal) = 0  Max(alpha.metal) = 1
MULES: Correcting alpha.metal
MULES: Correcting alpha.metal
Phase-1 volume fraction = 0.6666666666  Min(alpha.metal) = -1.937203468e-43  Max(alpha.metal) = 1
useLocalSearch: true
cos (theta): 	1
iterator_distance 	7.957747155e-07
Beam: 0
Beam: 1
Beam: 2
Beam: 3
Beam: 4
Beam: 5
Beam: 6
Beam: 7
Beam: 8
Beam: 9
Beam: 10
Beam: 11
Beam: 12
Beam: 13
Beam: 14
Beam: 15
Beam: 16
Beam: 17
Beam: 18
Beam: 19
Beam: 20
Beam: 21
Beam: 22
Beam: 23
Beam: 24
Beam: 25
Beam: 26
Beam: 27
Total Q deposited this timestep: 	5.302844704e-05
smoothSolver:  Solving for T, Initial residual = 0.001498651796, Final residual = 3.071852121e-10, No Iterations 5
Correcting epsilon1, mean residual = 4.180670093e-07, max residual = 0.003010084109
smoothSolver:  Solving for T, Initial residual = 4.48295231e-06, Final residual = 3.41281569e-11, No Iterations 3
Correcting epsilon1, mean residual = 5.947257202e-08, max residual = 0.0004282025904
smoothSolver:  Solving for T, Initial residual = 6.375664633e-07, Final residual = 1.891967444e-10, No Iterations 2
Correcting epsilon1, mean residual = 8.462090027e-09, max residual = 6.092772857e-05
smoothSolver:  Solving for T, Initial residual = 9.081972624e-08, Final residual = 2.706893095e-11, No Iterations 2
Correcting epsilon1, mean residual = 1.201911775e-09, max residual = 8.654437112e-06
DICPCG:  Solving for p_rgh, Initial residual = 0.003308755405, Final residual = 9.569579165e-10, No Iterations 92
time step continuity errors : sum local = 4.924255633e-12, global = -3.197196421e-14, cumulative = -1.834177081e-12
DICPCG:  Solving for p_rgh, Initial residual = 0.0002912363596, Final residual = 9.911471671e-10, No Iterations 91
time step continuity errors : sum local = 5.163961857e-12, global = -8.653474567e-14, cumulative = -1.920711827e-12
DICPCG:  Solving for p_rgh, Initial residual = 6.479912812e-05, Final residual = 9.788842254e-10, No Iterations 66
time step continuity errors : sum local = 5.105667444e-12, global = 2.086546856e-15, cumulative = -1.91862528e-12
ExecutionTime = 1.245778 s  ClockTime = 1 s

Courant Number mean: 0.0008944148265 max: 0.1009329599
Interface Courant Number mean: 5.546553063e-05 max: 0.07304798986
deltaT = 1.609217232e-07
Time = 1.921729496e-05s

smoothSolver:  Solving for alpha.metal, Initial residual = 1.264533183e-05, Final residual = 2.622617152e-12, No Iterations 2
Phase-1 volume fraction = 0.6666666666  Min(alpha.metal) = 0  Max(alpha.metal) = 1
MULES: Correcting alpha.metal
MULES: Correcting alpha.metal
Phase-1 volume fraction = 0.6666666666  Min(alpha.metal) = -2.553859998e-70  Max(alpha.metal) = 1
useLocalSearch: true
cos (theta): 	1
iterator_distance 	7.957747155e-07
Beam: 0
Beam: 1
Beam: 2
Beam: 3
Beam: 4
Beam: 5
Beam: 6
Beam: 7
Beam: 8
Beam: 9
Beam: 10
Beam: 11
Beam: 12
Beam: 13
Beam: 14
Beam: 15
Beam: 16
Beam: 17
Beam: 18
Beam: 19
Beam: 20
Beam: 21
Beam: 22
Beam: 23
Beam: 24
Beam: 25
Beam: 26
Beam: 27
Total Q deposited this timestep: 	5.302845516e-05
smoothSolver:  Solving for T, Initial residual = 0.001439311651, Final residual = 2.763536631e-10, No Iterations 5
Correcting epsilon1, mean residual = 4.378509096e-07, max residual = 0.003152528344
smoothSolver:  Solving for T, Initial residual = 4.67248396e-06, Final residual = 3.330755113e-11, No Iterations 3
Correcting epsilon1, mean residual = 6.136263421e-08, max residual = 0.0004418110438
smoothSolver:  Solving for T, Initial residual = 6.547002002e-07, Final residual = 1.856748514e-10, No Iterations 2
Correcting epsilon1, mean residual = 8.601455992e-09, max residual = 6.1931183e-05
smoothSolver:  Solving for T, Initial residual = 9.187293267e-08, Final residual = 2.616741938e-11, No Iterations 2
Correcting epsilon1, mean residual = 1.203587828e-09, max residual = 8.666520425e-06
DICPCG:  Solving for p_rgh, Initial residual = 0.003399680585, Final residual = 9.09755435e-10, No Iterations 90
time step continuity errors : sum local = 4.673089298e-12, global = -1.458150447e-13, cumulative = -2.064440325e-12
DICPCG:  Solving for p_rgh, Initial residual = 0.0002761626983, Final residual = 8.963081164e-10, No Iterations 91
time step continuity errors : sum local = 4.625169605e-12, global = -8.266592496e-14, cumulative = -2.14710625e-12
DICPCG:  Solving for p_rgh, Initial residual = 6.359402911e-05, Final residual = 8.833897977e-10, No Iterations 69
time step continuity errors : sum local = 4.553412082e-12, global = 5.919827871e-14, cumulative = -2.087907971e-12
ExecutionTime = 1.288387 s  ClockTime = 1 s

Courant Number mean: 0.0008991392343 max: 0.1000873579
Interface Courant Number mean: 5.46757152e-05 max: 0.07548590896
deltaT = 1.606017993e-07
Time = 1.937789675e-05s

smoothSolver:  Solving for alpha.metal, Initial residual = 1.246913217e-05, Final residual = 3.072113837e-12, No Iterations 2
Phase-1 volume fraction = 0.6666666666  Min(alpha.metal) = 0  Max(alpha.metal) = 1
MULES: Correcting alpha.metal
MULES: Correcting alpha.metal
Phase-1 volume fraction = 0.6666666666  Min(alpha.metal) = -1.887323072e-97  Max(alpha.metal) = 1
useLocalSearch: true
cos (theta): 	1
iterator_distance 	7.957747155e-07
Beam: 0
Beam: 1
Beam: 2
Beam: 3
Beam: 4
Beam: 5
Beam: 6
Beam: 7
Beam: 8
Beam: 9
Beam: 10
Beam: 11
Beam: 12
Beam: 13
Beam: 14
Beam: 15
Beam: 16
Beam: 17
Beam: 18
Beam: 19
Beam: 20
Beam: 21
Beam: 22
Beam: 23
Beam: 24
Beam: 25
Beam: 26
Beam: 27
Total Q deposited this timestep: 	5.302846144e-05
smoothSolver:  Solving for T, Initial residual = 0.001396155975, Final residual = 2.600631232e-10, No Iterations 5
Correcting epsilon1, mean residual = 4.469448915e-07, max residual = 0.003218005086
smoothSolver:  Solving for T, Initial residual = 4.746956941e-06, Final residual = 3.282446691e-11, No Iterations 3
Correcting epsilon1, mean residual = 6.22213377e-08, max residual = 0.0004479937102
smoothSolver:  Solving for T, Initial residual = 6.607455096e-07, Final residual = 1.837541663e-10, No Iterations 2
Correcting epsilon1, mean residual = 8.663949168e-09, max residual = 6.238115734e-05
smoothSolver:  Solving for T, Initial residual = 9.210435905e-08, Final residual = 2.572307891e-11, No Iterations 2
Correcting epsilon1, mean residual = 1.204281899e-09, max residual = 8.671534571e-06
DICPCG:  Solving for p_rgh, Initial residual = 0.003560552657, Final residual = 8.532715741e-10, No Iterations 90
time step continuity errors : sum local = 4.379432793e-12, global = -2.148297491e-13, cumulative = -2.30273772e-12
DICPCG:  Solving for p_rgh, Initial residual = 0.0002709438103, Final residual = 9.019414973e-10, No Iterations 91
time step continuity errors : sum local = 4.616697609e-12, global = -7.868745636e-14, cumulative = -2.381425176e-12
DICPCG:  Solving for p_rgh, Initial residual = 6.284559909e-05, Final residual = 9.827764404e-10, No Iterations 71
time step continuity errors : sum local = 5.013230688e-12, global = -7.188820146e-14, cumulative = -2.453313378e-12
ExecutionTime = 1.330966 s  ClockTime = 1 s

Courant Number mean: 0.0009095030491 max: 0.09920067209
Interface Courant Number mean: 5.410502269e-05 max: 0.07786959682
deltaT = 1.618917736e-07
Time = 1.953978853e-05s

smoothSolver:  Solving for alpha.metal, Initial residual = 1.227638052e-05, Final residual = 3.574637479e-12, No Iterations 2
Phase-1 volume fraction = 0.6666666666  Min(alpha.metal) = 0  Max(alpha.metal) = 1
MULES: Correcting alpha.metal
MULES: Correcting alpha.metal
Phase-1 volume fraction = 0.6666666666  Min(alpha.metal) = -2.384416258e-145  Max(alpha.metal) = 1
useLocalSearch: true
cos (theta): 	1
iterator_distance 	7.957747155e-07
Beam: 0
Beam: 1
Beam: 2
Beam: 3
Beam: 4
Beam: 5
Beam: 6
Beam: 7
Beam: 8
Beam: 9
Beam: 10
Beam: 11
Beam: 12
Beam: 13
Beam: 14
Beam: 15
Beam: 16
Beam: 17
Beam: 18
Beam: 19
Beam: 20
Beam: 21
Beam: 22
Beam: 23
Beam: 24
Beam: 25
Beam: 26
Beam: 27
Total Q deposited this timestep: 	5.302846629e-05
smoothSolver:  Solving for T, Initial residual = 0.001370316357, Final residual = 2.586552222e-10, No Iterations 5
Correcting epsilon1, mean residual = 4.508077554e-07, max residual = 0.003245817728
smoothSolver:  Solving for T, Initial residual = 4.765399363e-06, Final residual = 3.34056775e-11, No Iterations 3
Correcting epsilon1, mean residual = 6.300856211e-08, max residual = 0.0004536617215
smoothSolver:  Solving for T, Initial residual = 6.659661854e-07, Final residual = 1.876271564e-10, No Iterations 2
Correcting epsilon1, mean residual = 8.808488243e-09, max residual = 6.342188232e-05
smoothSolver:  Solving for T, Initial residual = 9.320229498e-08, Final residual = 2.636923955e-11, No Iterations 2
Correcting epsilon1, mean residual = 1.229219512e-09, max residual = 8.851118422e-06
DICPCG:  Solving for p_rgh, Initial residual = 0.003702967606, Final residual = 9.395597717e-10, No Iterations 91
time step continuity errors : sum local = 4.842857115e-12, global = -8.620395123e-14, cumulative = -2.539517329e-12
DICPCG:  Solving for p_rgh, Initial residual = 0.0002747015882, Final residual = 9.21373115e-10, No Iterations 92
time step continuity errors : sum local = 4.700918161e-12, global = -5.894785246e-14, cumulative = -2.598465181e-12
DICPCG:  Solving for p_rgh, Initial residual = 6.315524677e-05, Final residual = 9.416576335e-10, No Iterations 70
time step continuity errors : sum local = 4.778842907e-12, global = -1.549117431e-14, cumulative = -2.613956356e-12
ExecutionTime = 1.373403 s  ClockTime = 1 s

Courant Number mean: 0.0009296753261 max: 0.09888112615
Interface Courant Number mean: 5.387993115e-05 max: 0.08052506489
deltaT = 1.635370152e-07
Time = 1.970332554e-05s

smoothSolver:  Solving for alpha.metal, Initial residual = 1.195173057e-05, Final residual = 4.028093452e-12, No Iterations 2
Phase-1 volume fraction = 0.6666666666  Min(alpha.metal) = 0  Max(alpha.metal) = 1
MULES: Correcting alpha.metal
MULES: Correcting alpha.metal
Phase-1 volume fraction = 0.6666666666  Min(alpha.metal) = 0  Max(alpha.metal) = 1
useLocalSearch: true
cos (theta): 	1
iterator_distance 	7.957747155e-07
Beam: 0
Beam: 1
Beam: 2
Beam: 3
Beam: 4
Beam: 5
Beam: 6
Beam: 7
Beam: 8
Beam: 9
Beam: 10
Beam: 11
Beam: 12
Beam: 13
Beam: 14
Beam: 15
Beam: 16
Beam: 17
Beam: 18
Beam: 19
Beam: 20
Beam: 21
Beam: 22
Beam: 23
Beam: 24
Beam: 25
Beam: 26
Beam: 27
Total Q deposited this timestep: 	5.302847007e-05
smoothSolver:  Solving for T, Initial residual = 0.001349741896, Final residual = 2.601922024e-10, No Iterations 5
Correcting epsilon1, mean residual = 4.500293762e-07, max residual = 0.003240213353
smoothSolver:  Solving for T, Initial residual = 4.734926896e-06, Final residual = 3.401194606e-11, No Iterations 3
Correcting epsilon1, mean residual = 6.328240928e-08, max residual = 0.0004556334095
[...]
DICPCG:  Solving for p_rgh, Initial residual = 5.188132023e-06, Final residual = 9.122217907e-10, No Iterations 66
time step continuity errors : sum local = 2.00196668e-11, global = 3.91212549e-13, cumulative = 1.847065581e-10
ExecutionTime = 37.785818 s  ClockTime = 38 s

Courant Number mean: 0.003035285395 max: 0.1009419526
Interface Courant Number mean: 0.0001909625839 max: 0.1009419526
deltaT = 1.836708541e-07
Time = 0.0002300214046s

smoothSolver:  Solving for alpha.metal, Initial residual = 3.159688655e-05, Final residual = 1.23991264e-11, No Iterations 2
Phase-1 volume fraction = 0.6666666663  Min(alpha.metal) = -4.044139229e-19  Max(alpha.metal) = 1
MULES: Correcting alpha.metal
MULES: Correcting alpha.metal
Phase-1 volume fraction = 0.6666666663  Min(alpha.metal) = -4.044139229e-19  Max(alpha.metal) = 1
useLocalSearch: true
cos (theta): 	1
iterator_distance 	7.957747155e-07
Beam: 0
Beam: 1
Beam: 2
Beam: 3
Beam: 4
Beam: 5
Beam: 6
Beam: 7
Beam: 8
Beam: 9
Beam: 10
Beam: 11
Beam: 12
Beam: 13
Beam: 14
Beam: 15
Beam: 16
Beam: 17
Beam: 18
Beam: 19
Beam: 20
Beam: 21
Beam: 22
Beam: 23
Beam: 24
Beam: 25
Beam: 26
Beam: 27
Total Q deposited this timestep: 	5.302955293e-05
smoothSolver:  Solving for T, Initial residual = 0.0002411948213, Final residual = 8.369764018e-10, No Iterations 4
Correcting epsilon1, mean residual = 6.059188622e-06, max residual = 0.0142822875
smoothSolver:  Solving for T, Initial residual = 1.16216615e-05, Final residual = 5.423690556e-11, No Iterations 3
Correcting epsilon1, mean residual = 6.314275322e-07, max residual = 0.001155593226
smoothSolver:  Solving for T, Initial residual = 1.198337109e-06, Final residual = 3.091980536e-10, No Iterations 2
Correcting epsilon1, mean residual = 7.460428862e-08, max residual = 0.0001395273156
smoothSolver:  Solving for T, Initial residual = 1.370187045e-07, Final residual = 3.574795055e-11, No Iterations 2
Correcting epsilon1, mean residual = 1.044715397e-08, max residual = 1.933869401e-05
smoothSolver:  Solving for T, Initial residual = 1.72247e-08, Final residual = 2.81727576e-10, No Iterations 1
Correcting epsilon1, mean residual = 1.684497648e-09, max residual = 2.767935113e-06
DICPCG:  Solving for p_rgh, Initial residual = 0.0001475059504, Final residual = 9.084599227e-10, No Iterations 75
time step continuity errors : sum local = 1.965512424e-11, global = -7.690322534e-13, cumulative = 1.839375258e-10
DICPCG:  Solving for p_rgh, Initial residual = 2.283688417e-05, Final residual = 9.017475367e-10, No Iterations 68
time step continuity errors : sum local = 1.942064412e-11, global = 7.77483411e-13, cumulative = 1.847150092e-10
DICPCG:  Solving for p_rgh, Initial residual = 5.121917205e-06, Final residual = 9.158847704e-10, No Iterations 66
time step continuity errors : sum local = 1.972998969e-11, global = 4.340287499e-13, cumulative = 1.85149038e-10
ExecutionTime = 37.834118 s  ClockTime = 38 s

Courant Number mean: 0.003013841624 max: 0.100971186
Interface Courant Number mean: 0.0001907114738 max: 0.100971186
deltaT = 1.817625855e-07
Time = 0.0002302031672s

smoothSolver:  Solving for alpha.metal, Initial residual = 3.188733907e-05, Final residual = 1.25784155e-11, No Iterations 2
Phase-1 volume fraction = 0.6666666663  Min(alpha.metal) = -3.975462417e-19  Max(alpha.metal) = 1
MULES: Correcting alpha.metal
MULES: Correcting alpha.metal
Phase-1 volume fraction = 0.6666666663  Min(alpha.metal) = -3.975462417e-19  Max(alpha.metal) = 1
useLocalSearch: true
cos (theta): 	1
iterator_distance 	7.957747155e-07
Beam: 0
Beam: 1
Beam: 2
Beam: 3
Beam: 4
Beam: 5
Beam: 6
Beam: 7
Beam: 8
Beam: 9
Beam: 10
Beam: 11
Beam: 12
Beam: 13
Beam: 14
Beam: 15
Beam: 16
Beam: 17
Beam: 18
Beam: 19
Beam: 20
Beam: 21
Beam: 22
Beam: 23
Beam: 24
Beam: 25
Beam: 26
Beam: 27
Total Q deposited this timestep: 	5.302954996e-05
smoothSolver:  Solving for T, Initial residual = 0.0002390681695, Final residual = 8.055674699e-10, No Iterations 4
Correcting epsilon1, mean residual = 6.038043152e-06, max residual = 0.01395863317
smoothSolver:  Solving for T, Initial residual = 1.158919773e-05, Final residual = 5.112500943e-11, No Iterations 3
Correcting epsilon1, mean residual = 6.161434757e-07, max residual = 0.001079840234
smoothSolver:  Solving for T, Initial residual = 1.169019245e-06, Final residual = 2.906132019e-10, No Iterations 2
Correcting epsilon1, mean residual = 7.257780958e-08, max residual = 0.0001352253829
smoothSolver:  Solving for T, Initial residual = 1.319669702e-07, Final residual = 3.320363085e-11, No Iterations 2
Correcting epsilon1, mean residual = 1.011646812e-08, max residual = 1.835940456e-05
smoothSolver:  Solving for T, Initial residual = 1.645440647e-08, Final residual = 2.651292332e-10, No Iterations 1
Correcting epsilon1, mean residual = 1.625759009e-09, max residual = 2.574474588e-06
DICPCG:  Solving for p_rgh, Initial residual = 0.0001478735622, Final residual = 8.909764912e-10, No Iterations 75
time step continuity errors : sum local = 1.891958231e-11, global = -7.740978218e-13, cumulative = 1.843749402e-10
DICPCG:  Solving for p_rgh, Initial residual = 2.280014617e-05, Final residual = 8.625417617e-10, No Iterations 68
time step continuity errors : sum local = 1.823447322e-11, global = 7.028990344e-13, cumulative = 1.850778392e-10
DICPCG:  Solving for p_rgh, Initial residual = 5.091740249e-06, Final residual = 9.179965464e-10, No Iterations 66
time step continuity errors : sum local = 1.941121935e-11, global = 4.743100782e-13, cumulative = 1.855521493e-10
ExecutionTime = 37.881687 s  ClockTime = 38 s

Courant Number mean: 0.002992869917 max: 0.1009469036
Interface Courant Number mean: 0.0001904152635 max: 0.1009469036
deltaT = 1.798887444e-07
Time = 0.0002303830559s

smoothSolver:  Solving for alpha.metal, Initial residual = 3.216938713e-05, Final residual = 1.27157703e-11, No Iterations 2
Phase-1 volume fraction = 0.6666666663  Min(alpha.metal) = -3.906522182e-19  Max(alpha.metal) = 1
MULES: Correcting alpha.metal
MULES: Correcting alpha.metal
Phase-1 volume fraction = 0.6666666663  Min(alpha.metal) = -3.906522182e-19  Max(alpha.metal) = 1
useLocalSearch: true
cos (theta): 	1
iterator_distance 	7.957747155e-07
Beam: 0
Beam: 1
Beam: 2
Beam: 3
Beam: 4
Beam: 5
Beam: 6
Beam: 7
Beam: 8
Beam: 9
Beam: 10
Beam: 11
Beam: 12
Beam: 13
Beam: 14
Beam: 15
Beam: 16
Beam: 17
Beam: 18
Beam: 19
Beam: 20
Beam: 21
Beam: 22
Beam: 23
Beam: 24
Beam: 25
Beam: 26
Beam: 27
Total Q deposited this timestep: 	5.302941863e-05
smoothSolver:  Solving for T, Initial residual = 0.0002945663104, Final residual = 7.375076258e-10, No Iterations 4
Correcting epsilon1, mean residual = 6.013564425e-06, max residual = 0.01361606871
smoothSolver:  Solving for T, Initial residual = 1.160371717e-05, Final residual = 4.883439278e-11, No Iterations 3
Correcting epsilon1, mean residual = 6.010377663e-07, max residual = 0.001006234762
smoothSolver:  Solving for T, Initial residual = 1.140261978e-06, Final residual = 2.733254769e-10, No Iterations 2
Correcting epsilon1, mean residual = 7.062451356e-08, max residual = 0.0001309406265
smoothSolver:  Solving for T, Initial residual = 1.271492488e-07, Final residual = 3.090264189e-11, No Iterations 2
Correcting epsilon1, mean residual = 9.800815484e-09, max residual = 1.741018881e-05
smoothSolver:  Solving for T, Initial residual = 1.573173386e-08, Final residual = 2.497813401e-10, No Iterations 1
Correcting epsilon1, mean residual = 1.569486811e-09, max residual = 2.512852691e-06
DICPCG:  Solving for p_rgh, Initial residual = 0.0001486132449, Final residual = 9.339763983e-10, No Iterations 75
time step continuity errors : sum local = 1.946955165e-11, global = -7.700189961e-13, cumulative = 1.847821303e-10
DICPCG:  Solving for p_rgh, Initial residual = 2.277510432e-05, Final residual = 8.236023919e-10, No Iterations 68
time step continuity errors : sum local = 1.70709848e-11, global = 6.576342116e-13, cumulative = 1.854397645e-10
DICPCG:  Solving for p_rgh, Initial residual = 5.076389724e-06, Final residual = 9.196039832e-10, No Iterations 66
time step continuity errors : sum local = 1.905641638e-11, global = 5.103410707e-13, cumulative = 1.859501056e-10
ExecutionTime = 37.928402 s  ClockTime = 38 s

Courant Number mean: 0.002972415686 max: 0.1008809716
Interface Courant Number mean: 0.0001901257307 max: 0.1008809716
deltaT = 1.780484503e-07
Time = 0.0002305611044s

smoothSolver:  Solving for alpha.metal, Initial residual = 3.243799492e-05, Final residual = 1.281963579e-11, No Iterations 2
Phase-1 volume fraction = 0.6666666663  Min(alpha.metal) = -3.837369502e-19  Max(alpha.metal) = 1
MULES: Correcting alpha.metal
MULES: Correcting alpha.metal
Phase-1 volume fraction = 0.6666666663  Min(alpha.metal) = -3.837369502e-19  Max(alpha.metal) = 1
useLocalSearch: true
cos (theta): 	1
iterator_distance 	7.957747155e-07
Beam: 0
Beam: 1
Beam: 2
Beam: 3
Beam: 4
Beam: 5
Beam: 6
Beam: 7
Beam: 8
Beam: 9
Beam: 10
Beam: 11
Beam: 12
Beam: 13
Beam: 14
Beam: 15
Beam: 16
Beam: 17
Beam: 18
Beam: 19
Beam: 20
Beam: 21
Beam: 22
Beam: 23
Beam: 24
Beam: 25
Beam: 26
Beam: 27
Total Q deposited this timestep: 	5.302940714e-05
smoothSolver:  Solving for T, Initial residual = 0.0002720047244, Final residual = 6.85937251e-10, No Iterations 4
Correcting epsilon1, mean residual = 5.985204108e-06, max residual = 0.01324613208
smoothSolver:  Solving for T, Initial residual = 1.15367934e-05, Final residual = 4.566652393e-11, No Iterations 3
Correcting epsilon1, mean residual = 5.862066903e-07, max residual = 0.0009711604681
smoothSolver:  Solving for T, Initial residual = 1.111956412e-06, Final residual = 2.571319461e-10, No Iterations 2
Correcting epsilon1, mean residual = 6.876809087e-08, max residual = 0.000126627172
smoothSolver:  Solving for T, Initial residual = 1.225982274e-07, Final residual = 2.884284849e-11, No Iterations 2
Correcting epsilon1, mean residual = 9.504821757e-09, max residual = 1.648622481e-05
smoothSolver:  Solving for T, Initial residual = 1.506990925e-08, Final residual = 2.357516742e-10, No Iterations 1
Correcting epsilon1, mean residual = 1.516618753e-09, max residual = 2.463493436e-06
DICPCG:  Solving for p_rgh, Initial residual = 0.0001962006166, Final residual = 9.805885927e-10, No Iterations 74
time step continuity errors : sum local = 2.003048038e-11, global = -1.034858852e-12, cumulative = 1.849152467e-10
DICPCG:  Solving for p_rgh, Initial residual = 2.528770517e-05, Final residual = 8.177745802e-10, No Iterations 68
time step continuity errors : sum local = 1.672862036e-11, global = 6.441337191e-13, cumulative = 1.855593804e-10
DICPCG:  Solving for p_rgh, Initial residual = 4.845657631e-06, Final residual = 9.832971098e-10, No Iterations 65
time step continuity errors : sum local = 2.01589781e-11, global = 4.905552656e-13, cumulative = 1.860499357e-10
ExecutionTime = 37.974877 s  ClockTime = 38 s

Courant Number mean: 0.002951392981 max: 0.1006803921
Interface Courant Number mean: 0.0001893346547 max: 0.1006803921
deltaT = 1.766893018e-07
Time = 0.0002307377937s

smoothSolver:  Solving for alpha.metal, Initial residual = 3.261062083e-05, Final residual = 1.30227183e-11, No Iterations 2
Phase-1 volume fraction = 0.6666666663  Min(alpha.metal) = -3.767663838e-19  Max(alpha.metal) = 1
MULES: Correcting alpha.metal
MULES: Correcting alpha.metal
Phase-1 volume fraction = 0.6666666663  Min(alpha.metal) = -3.767663838e-19  Max(alpha.metal) = 1
useLocalSearch: true
cos (theta): 	1
iterator_distance 	7.957747155e-07
Beam: 0
Beam: 1
Beam: 2
Beam: 3
Beam: 4
Beam: 5
Beam: 6
Beam: 7
Beam: 8
Beam: 9
Beam: 10
Beam: 11
Beam: 12
Beam: 13
Beam: 14
Beam: 15
Beam: 16
Beam: 17
Beam: 18
Beam: 19
Beam: 20
Beam: 21
Beam: 22
Beam: 23
Beam: 24
Beam: 25
Beam: 26
Beam: 27
Total Q deposited this timestep: 	5.302939336e-05
smoothSolver:  Solving for T, Initial residual = 0.000260154529, Final residual = 6.454244684e-10, No Iterations 4
Correcting epsilon1, mean residual = 5.967010254e-06, max residual = 0.01287248563
smoothSolver:  Solving for T, Initial residual = 1.149843504e-05, Final residual = 4.349161974e-11, No Iterations 3
Correcting epsilon1, mean residual = 5.753116374e-07, max residual = 0.000963450506
smoothSolver:  Solving for T, Initial residual = 1.091279804e-06, Final residual = 2.457447008e-10, No Iterations 2
Correcting epsilon1, mean residual = 6.762088612e-08, max residual = 0.000123348622
smoothSolver:  Solving for T, Initial residual = 1.1946067e-07, Final residual = 2.746315564e-11, No Iterations 2
Correcting epsilon1, mean residual = 9.334378017e-09, max residual = 1.576834724e-05
smoothSolver:  Solving for T, Initial residual = 1.463847211e-08, Final residual = 2.266548022e-10, No Iterations 1
Correcting epsilon1, mean residual = 1.487315286e-09, max residual = 2.443683053e-06
DICPCG:  Solving for p_rgh, Initial residual = 0.0001845058614, Final residual = 9.809001029e-10, No Iterations 73
time step continuity errors : sum local = 1.992180719e-11, global = -1.055906565e-12, cumulative = 1.849940291e-10
DICPCG:  Solving for p_rgh, Initial residual = 2.650938062e-05, Final residual = 9.995370212e-10, No Iterations 67
time step continuity errors : sum local = 2.030765977e-11, global = 1.092075732e-13, cumulative = 1.851032367e-10
DICPCG:  Solving for p_rgh, Initial residual = 4.935543404e-06, Final residual = 9.20121931e-10, No Iterations 65
time step continuity errors : sum local = 1.872961796e-11, global = 5.360747455e-13, cumulative = 1.856393115e-10
ExecutionTime = 38.021086 s  ClockTime = 38 s

Courant Number mean: 0.002937279158 max: 0.1005789291
Interface Courant Number mean: 0.0001886276381 max: 0.1005789291
deltaT = 1.753473578e-07
Time = 0.000230913141s

smoothSolver:  Solving for alpha.metal, Initial residual = 3.268310748e-05, Final residual = 1.315889821e-11, No Iterations 2
Phase-1 volume fraction = 0.6666666663  Min(alpha.metal) = -3.697336528e-19  Max(alpha.metal) = 1
MULES: Correcting alpha.metal
MULES: Correcting alpha.metal
Phase-1 volume fraction = 0.6666666663  Min(alpha.metal) = -3.697336528e-19  Max(alpha.metal) = 1
useLocalSearch: true
cos (theta): 	1
iterator_distance 	7.957747155e-07
Beam: 0
Beam: 1
Beam: 2
Beam: 3
Beam: 4
Beam: 5
Beam: 6
Beam: 7
Beam: 8
Beam: 9
Beam: 10
Beam: 11
Beam: 12
Beam: 13
Beam: 14
Beam: 15
Beam: 16
Beam: 17
Beam: 18
Beam: 19
Beam: 20
Beam: 21
Beam: 22
Beam: 23
Beam: 24
Beam: 25
Beam: 26
Beam: 27
Total Q deposited this timestep: 	5.302937743e-05
smoothSolver:  Solving for T, Initial residual = 0.0002535356373, Final residual = 6.158041593e-10, No Iterations 4
Correcting epsilon1, mean residual = 5.94589221e-06, max residual = 0.01246144369
smoothSolver:  Solving for T, Initial residual = 1.145789015e-05, Final residual = 4.148573937e-11, No Iterations 3
Correcting epsilon1, mean residual = 5.649023995e-07, max residual = 0.0009551264688
smoothSolver:  Solving for T, Initial residual = 1.071685436e-06, Final residual = 2.351338652e-10, No Iterations 2
Correcting epsilon1, mean residual = 6.658530234e-08, max residual = 0.0001200368393
smoothSolver:  Solving for T, Initial residual = 1.166340054e-07, Final residual = 2.624047908e-11, No Iterations 2
Correcting epsilon1, mean residual = 9.183078038e-09, max residual = 1.506271247e-05
smoothSolver:  Solving for T, Initial residual = 1.426255972e-08, Final residual = 2.186081843e-10, No Iterations 1
Correcting epsilon1, mean residual = 1.460970216e-09, max residual = 2.420767422e-06
DICPCG:  Solving for p_rgh, Initial residual = 0.0001685879839, Final residual = 9.136885138e-10, No Iterations 71
time step continuity errors : sum local = 1.842264672e-11, global = -1.517506298e-12, cumulative = 1.841218052e-10
DICPCG:  Solving for p_rgh, Initial residual = 2.75454511e-05, Final residual = 8.866251613e-10, No Iterations 67
time step continuity errors : sum local = 1.78252645e-11, global = 3.382981648e-14, cumulative = 1.84155635e-10
DICPCG:  Solving for p_rgh, Initial residual = 5.150030285e-06, Final residual = 9.426533279e-10, No Iterations 64
time step continuity errors : sum local = 1.896618394e-11, global = 5.4318026e-13, cumulative = 1.846988152e-10
ExecutionTime = 38.06759 s  ClockTime = 38 s

Courant Number mean: 0.002922593007 max: 0.1003088943
Interface Courant Number mean: 0.0001876539899 max: 0.1003088943
deltaT = 1.74461765e-07
Time = 0.0002310876028s

smoothSolver:  Solving for alpha.metal, Initial residual = 3.279496974e-05, Final residual = 1.33798229e-11, No Iterations 2
Phase-1 volume fraction = 0.6666666663  Min(alpha.metal) = -3.626234492e-19  Max(alpha.metal) = 1
MULES: Correcting alpha.metal
MULES: Correcting alpha.metal
Phase-1 volume fraction = 0.6666666663  Min(alpha.metal) = -3.626234492e-19  Max(alpha.metal) = 1
useLocalSearch: true
cos (theta): 	1
iterator_distance 	7.957747155e-07
Beam: 0
Beam: 1
Beam: 2
Beam: 3
Beam: 4
Beam: 5
Beam: 6
Beam: 7
Beam: 8
Beam: 9
Beam: 10
Beam: 11
Beam: 12
Beam: 13
Beam: 14
Beam: 15
Beam: 16
Beam: 17
Beam: 18
Beam: 19
Beam: 20
Beam: 21
Beam: 22
Beam: 23
Beam: 24
Beam: 25
Beam: 26
Beam: 27
Total Q deposited this timestep: 	5.302935965e-05
smoothSolver:  Solving for T, Initial residual = 0.0002481159185, Final residual = 6.011395216e-10, No Iterations 4
Correcting epsilon1, mean residual = 5.93191998e-06, max residual = 0.01203696827
smoothSolver:  Solving for T, Initial residual = 1.143801276e-05, Final residual = 4.017715876e-11, No Iterations 3
Correcting epsilon1, mean residual = 5.580770185e-07, max residual = 0.0009511339974
smoothSolver:  Solving for T, Initial residual = 1.059710572e-06, Final residual = 2.285191105e-10, No Iterations 2
Correcting epsilon1, mean residual = 6.632156181e-08, max residual = 0.0001176671749
smoothSolver:  Solving for T, Initial residual = 1.151665871e-07, Final residual = 2.559978471e-11, No Iterations 2
Correcting epsilon1, mean residual = 9.167587584e-09, max residual = 1.453416662e-05
smoothSolver:  Solving for T, Initial residual = 1.410395799e-08, Final residual = 2.149663948e-10, No Iterations 1
Correcting epsilon1, mean residual = 1.462205208e-09, max residual = 2.437969162e-06
DICPCG:  Solving for p_rgh, Initial residual = 0.000178801502, Final residual = 9.216287392e-10, No Iterations 70
time step continuity errors : sum local = 1.842159637e-11, global = -1.172691843e-12, cumulative = 1.835261234e-10
DICPCG:  Solving for p_rgh, Initial residual = 2.718791725e-05, Final residual = 8.110524645e-10, No Iterations 66
time step continuity errors : sum local = 1.611851198e-11, global = -4.56424314e-13, cumulative = 1.830696991e-10
DICPCG:  Solving for p_rgh, Initial residual = 5.28681503e-06, Final residual = 9.081717665e-10, No Iterations 64
time step continuity errors : sum local = 1.804493409e-11, global = 6.40385683e-13, cumulative = 1.837100848e-10
ExecutionTime = 38.11309 s  ClockTime = 38 s

Courant Number mean: 0.002915221569 max: 0.1001328173
Interface Courant Number mean: 0.0001890163656 max: 0.1001328173
deltaT = 1.74021205e-07
Time = 0.000231261624s

smoothSolver:  Solving for alpha.metal, Initial residual = 3.29778179e-05, Final residual = 1.369143971e-11, No Iterations 2
Phase-1 volume fraction = 0.6666666663  Min(alpha.metal) = -3.554266316e-19  Max(alpha.metal) = 1
MULES: Correcting alpha.metal
MULES: Correcting alpha.metal
Phase-1 volume fraction = 0.6666666663  Min(alpha.metal) = -3.554266316e-19  Max(alpha.metal) = 1
useLocalSearch: true
cos (theta): 	1
iterator_distance 	7.957747155e-07
Beam: 0
Beam: 1
Beam: 2
Beam: 3
Beam: 4
Beam: 5
Beam: 6
Beam: 7
Beam: 8
Beam: 9
Beam: 10
Beam: 11
Beam: 12
Beam: 13
Beam: 14
Beam: 15
Beam: 16
Beam: 17
Beam: 18
Beam: 19
Beam: 20
Beam: 21
Beam: 22
Beam: 23
Beam: 24
Beam: 25
Beam: 26
Beam: 27
Total Q deposited this timestep: 	5.302934038e-05
smoothSolver:  Solving for T, Initial residual = 0.0002431772744, Final residual = 5.946070552e-10, No Iterations 4
Correcting epsilon1, mean residual = 5.926276003e-06, max residual = 0.01159789936
