/*---------------------------------------------------------------------------*\
  =========                 |
  \\      /  F ield         | OpenFOAM: The Open Source CFD Toolbox
   \\    /   O peration     | Website:  https://openfoam.org
    \\  /    A nd           | Version:  6
     \\/     M anipulation  |
\*---------------------------------------------------------------------------*/
Build  : 6-fa1285188035
Exec   : laserAMFoam -parallel
Date   : Jan 27 2022
Time   : 22:29:13
Host   : "e-uxxs4ly5294"
PID    : 21281
I/O    : uncollated
Case   : /home/mbcx7tf3/OpenFOAM/custom_solvers/laserAMFoam/tutorials/Test
nProcs : 6
Slaves : 
5
(
"e-uxxs4ly5294.21282"
"e-uxxs4ly5294.21283"
"e-uxxs4ly5294.21284"
"e-uxxs4ly5294.21285"
"e-uxxs4ly5294.21286"
)

Pstream initialized with:
    floatTransfer      : 0
    nProcsSimpleSum    : 0
    commsType          : nonBlocking
    polling iterations : 0
sigFpe : Enabling floating point exception trapping (FOAM_SIGFPE).
fileModificationChecking : Monitoring run-time modified files using timeStampMaster (fileModificationSkew 10)
allowSystemOperations : Allowing user-supplied system call operations

// * * * * * * * * * * * * * * * * * * * * * * * * * * * * * * * * * * * * * //
Create time

Create mesh for time = 0


PIMPLE: No convergence criteria found


PIMPLE: Operating solver in PISO mode

Reading field p_rgh

Reading field U

Reading/calculating face flux field phi

Reading transportProperties

Selecting incompressible transport model Newtonian
Selecting incompressible transport model Newtonian
Reading field Temperature

Selecting turbulence model type laminar
Selecting laminar stress model Stokes

Reading g

Reading hRef
Calculating field g.h

No MRF models present

No finite volume options present
GAMGPCG:  Solving for pcorr, Initial residual = 0, Final residual = 0, No Iterations 0
time step continuity errors : sum local = 0, global = 0, cumulative = 0
Courant Number mean: 0 max: 0

Starting time loop

Courant Number mean: 0 max: 0
Interface Courant Number mean: 0 max: 0
deltaT = 1.111111111e-05
Time = 1.111111111e-05

smoothSolver:  Solving for alpha.phase1, Initial residual = 0, Final residual = 0, No Iterations 0
Phase-1 volume fraction = 0.7325  Min(alpha.phase1) = 0  Max(alpha.phase1) = 1
MULES: Correcting alpha.phase1
MULES: Correcting alpha.phase1
MULES: Correcting alpha.phase1
Phase-1 volume fraction = 0.7325  Min(alpha.phase1) = 0  Max(alpha.phase1) = 1
smoothSolver:  Solving for alpha.phase1, Initial residual = 0, Final residual = 0, No Iterations 0
Phase-1 volume fraction = 0.7325  Min(alpha.phase1) = 0  Max(alpha.phase1) = 1
MULES: Correcting alpha.phase1
MULES: Correcting alpha.phase1
MULES: Correcting alpha.phase1
Phase-1 volume fraction = 0.7325  Min(alpha.phase1) = 0  Max(alpha.phase1) = 1
smoothSolver:  Solving for alpha.phase1, Initial residual = 0, Final residual = 0, No Iterations 0
Phase-1 volume fraction = 0.7325  Min(alpha.phase1) = 0  Max(alpha.phase1) = 1
MULES: Correcting alpha.phase1
MULES: Correcting alpha.phase1
MULES: Correcting alpha.phase1
Phase-1 volume fraction = 0.7325  Min(alpha.phase1) = 0  Max(alpha.phase1) = 1
iterator_distance 	5.305164717e-06
Beam: 0
Beam: 1
Beam: 2
Beam: 3
Beam: 4
Beam: 5
Beam: 6
Beam: 7
Beam: 8
Beam: 9
Beam: 10
Beam: 11
Beam: 12
Beam: 13
Beam: 14
Beam: 15
Beam: 16
Beam: 17
Beam: 18
Beam: 19
Beam: 20
Beam: 21
Beam: 22
Beam: 23
Beam: 24
Beam: 25
Beam: 26
Beam: 27
Beam: 28
Beam: 29
Beam: 30
Beam: 31
Beam: 32
Beam: 33
Beam: 34
Beam: 35
Beam: 36
Beam: 37
Beam: 38
Beam: 39
Beam: 40
Beam: 41
Beam: 42
Beam: 43
Beam: 44
Beam: 45
Beam: 46
Beam: 47
Beam: 48
Beam: 49
Beam: 50
Beam: 51
Beam: 52
Beam: 53
Beam: 54
Beam: 55
Beam: 56
Beam: 57
Beam: 58
smoothSolver:  Solving for Uy, Initial residual = 1, Final residual = 5.537315608e-17, No Iterations 5
smoothSolver:  Solving for Uz, Initial residual = 1, Final residual = 6.608218534e-17, No Iterations 5
smoothSolver:  Solving for Temperature, Initial residual = 0.5766384147, Final residual = 0.4380354493, No Iterations 1000
Correcting epsilon1, mean residual = 0, max residual = 0
GAMG:  Solving for p_rgh, Initial residual = 0.9999862752, Final residual = 0.0007815663087, No Iterations 1000
time step continuity errors : sum local = 2.190969014e-15, global = -2.892115043e-16, cumulative = -2.892115043e-16
GAMG:  Solving for p_rgh, Initial residual = 2.725264947e-15, Final residual = 2.725264947e-15, No Iterations 0
time step continuity errors : sum local = 8.120214404e-14, global = -3.793821687e-16, cumulative = -6.68593673e-16
GAMGPCG:  Solving for p_rgh, Initial residual = 3.032573328e-15, Final residual = 3.032573328e-15, No Iterations 0
time step continuity errors : sum local = 9.047844818e-14, global = -4.088133325e-16, cumulative = -1.077407006e-15
ExecutionTime = 3.78 s  ClockTime = 4 s

Courant Number mean: 2.742182099e-12 max: 1.771445492e-10
Interface Courant Number mean: 0 max: 0
deltaT = 1.26984127e-05
Time = 2.380952381e-05

smoothSolver:  Solving for alpha.phase1, Initial residual = 2.329412505e-13, Final residual = 2.329412505e-13, No Iterations 0
Phase-1 volume fraction = 0.7325  Min(alpha.phase1) = 0  Max(alpha.phase1) = 1
MULES: Correcting alpha.phase1
MULES: Correcting alpha.phase1
MULES: Correcting alpha.phase1
Phase-1 volume fraction = 0.7325  Min(alpha.phase1) = 0  Max(alpha.phase1) = 1
smoothSolver:  Solving for alpha.phase1, Initial residual = 2.329412505e-13, Final residual = 2.329412505e-13, No Iterations 0
Phase-1 volume fraction = 0.7325  Min(alpha.phase1) = 0  Max(alpha.phase1) = 1
MULES: Correcting alpha.phase1
MULES: Correcting alpha.phase1
MULES: Correcting alpha.phase1
Phase-1 volume fraction = 0.7325  Min(alpha.phase1) = 0  Max(alpha.phase1) = 1
smoothSolver:  Solving for alpha.phase1, Initial residual = 2.329412505e-13, Final residual = 2.329412505e-13, No Iterations 0
Phase-1 volume fraction = 0.7325  Min(alpha.phase1) = 0  Max(alpha.phase1) = 1
MULES: Correcting alpha.phase1
MULES: Correcting alpha.phase1
MULES: Correcting alpha.phase1
Phase-1 volume fraction = 0.7325  Min(alpha.phase1) = 0  Max(alpha.phase1) = 1
iterator_distance 	5.305164717e-06
Beam: 0
Beam: 1
Beam: 2
Beam: 3
Beam: 4
Beam: 5
Beam: 6
Beam: 7
Beam: 8
Beam: 9
Beam: 10
Beam: 11
Beam: 12
Beam: 13
Beam: 14
Beam: 15
Beam: 16
Beam: 17
Beam: 18
Beam: 19
Beam: 20
Beam: 21
Beam: 22
Beam: 23
Beam: 24
Beam: 25
Beam: 26
Beam: 27
Beam: 28
Beam: 29
Beam: 30
Beam: 31
Beam: 32
Beam: 33
Beam: 34
Beam: 35
Beam: 36
Beam: 37
Beam: 38
Beam: 39
Beam: 40
Beam: 41
Beam: 42
Beam: 43
Beam: 44
Beam: 45
Beam: 46
Beam: 47
Beam: 48
Beam: 49
Beam: 50
Beam: 51
Beam: 52
Beam: 53
Beam: 54
Beam: 55
Beam: 56
Beam: 57
Beam: 58
Beam: 59
smoothSolver:  Solving for Uy, Initial residual = 9.122610031e-11, Final residual = 9.122610031e-11, No Iterations 0
smoothSolver:  Solving for Uz, Initial residual = 9.329384528e-11, Final residual = 9.329384528e-11, No Iterations 0
smoothSolver:  Solving for Temperature, Initial residual = 0.9981527118, Final residual = 0.001341796445, No Iterations 1000
Correcting epsilon1, mean residual = 0, max residual = 0
GAMG:  Solving for p_rgh, Initial residual = 1.207306577e-14, Final residual = 1.207306577e-14, No Iterations 0
time step continuity errors : sum local = 4.187368675e-13, global = -7.767724977e-16, cumulative = -1.854179503e-15
GAMG:  Solving for p_rgh, Initial residual = 1.369056529e-14, Final residual = 1.369056529e-14, No Iterations 0
time step continuity errors : sum local = 4.748651793e-13, global = -9.268299216e-16, cumulative = -2.781009425e-15
GAMGPCG:  Solving for p_rgh, Initial residual = 1.399835778e-14, Final residual = 1.399835778e-14, No Iterations 0
time step continuity errors : sum local = 4.855975594e-13, global = -9.948259251e-16, cumulative = -3.77583535e-15
ExecutionTime = 5.79 s  ClockTime = 6 s

Courant Number mean: 4.192806886e-12 max: 3.325122944e-10
Interface Courant Number mean: 0 max: 0
deltaT = 1.523809524e-05
Time = 3.904761905e-05

smoothSolver:  Solving for alpha.phase1, Initial residual = 2.795295006e-13, Final residual = 2.795295006e-13, No Iterations 0
Phase-1 volume fraction = 0.7325  Min(alpha.phase1) = 0  Max(alpha.phase1) = 1
MULES: Correcting alpha.phase1
MULES: Correcting alpha.phase1
MULES: Correcting alpha.phase1
Phase-1 volume fraction = 0.7325  Min(alpha.phase1) = 0  Max(alpha.phase1) = 1
smoothSolver:  Solving for alpha.phase1, Initial residual = 2.795295006e-13, Final residual = 2.795295006e-13, No Iterations 0
Phase-1 volume fraction = 0.7325  Min(alpha.phase1) = 0  Max(alpha.phase1) = 1
MULES: Correcting alpha.phase1
MULES: Correcting alpha.phase1
MULES: Correcting alpha.phase1
Phase-1 volume fraction = 0.7325  Min(alpha.phase1) = 0  Max(alpha.phase1) = 1
smoothSolver:  Solving for alpha.phase1, Initial residual = 2.795295006e-13, Final residual = 2.795295006e-13, No Iterations 0
Phase-1 volume fraction = 0.7325  Min(alpha.phase1) = 0  Max(alpha.phase1) = 1
MULES: Correcting alpha.phase1
MULES: Correcting alpha.phase1
MULES: Correcting alpha.phase1
Phase-1 volume fraction = 0.7325  Min(alpha.phase1) = 0  Max(alpha.phase1) = 1
iterator_distance 	5.305164717e-06
Beam: 0
Beam: 1
Beam: 2
Beam: 3
Beam: 4
Beam: 5
Beam: 6
Beam: 7
Beam: 8
Beam: 9
Beam: 10
Beam: 11
Beam: 12
Beam: 13
Beam: 14
Beam: 15
Beam: 16
Beam: 17
Beam: 18
Beam: 19
Beam: 20
Beam: 21
Beam: 22
Beam: 23
Beam: 24
Beam: 25
Beam: 26
Beam: 27
Beam: 28
Beam: 29
Beam: 30
Beam: 31
Beam: 32
Beam: 33
Beam: 34
Beam: 35
Beam: 36
Beam: 37
Beam: 38
Beam: 39
Beam: 40
Beam: 41
Beam: 42
Beam: 43
Beam: 44
Beam: 45
Beam: 46
Beam: 47
Beam: 48
Beam: 49
Beam: 50
Beam: 51
Beam: 52
Beam: 53
Beam: 54
Beam: 55
Beam: 56
Beam: 57
Beam: 58
Beam: 59
smoothSolver:  Solving for Uy, Initial residual = 1.074419113e-14, Final residual = 1.074419113e-14, No Iterations 0
smoothSolver:  Solving for Uz, Initial residual = 1.611073594e-14, Final residual = 1.611073594e-14, No Iterations 0
smoothSolver:  Solving for Temperature, Initial residual = 0.1961536293, Final residual = 0.0002652811486, No Iterations 1000
Correcting epsilon1, mean residual = 0, max residual = 0
GAMG:  Solving for p_rgh, Initial residual = 1.922035222e-14, Final residual = 1.922035222e-14, No Iterations 0
time step continuity errors : sum local = 8.927314207e-13, global = -1.591619813e-15, cumulative = -5.367455163e-15
GAMG:  Solving for p_rgh, Initial residual = 2.058978232e-14, Final residual = 2.058978232e-14, No Iterations 0
time step continuity errors : sum local = 9.563776965e-13, global = -1.810913351e-15, cumulative = -7.178368514e-15
GAMGPCG:  Solving for p_rgh, Initial residual = 2.091644022e-14, Final residual = 2.091644022e-14, No Iterations 0
time step continuity errors : sum local = 9.716232997e-13, global = -1.920756536e-15, cumulative = -9.09912505e-15
ExecutionTime = 7.83 s  ClockTime = 8 s

Courant Number mean: 6.205540181e-12 max: 5.14213788e-10
Interface Courant Number mean: 0 max: 0
deltaT = 1.523809524e-05
Time = 5.428571429e-05

smoothSolver:  Solving for alpha.phase1, Initial residual = 2.795295006e-13, Final residual = 2.795295006e-13, No Iterations 0
Phase-1 volume fraction = 0.7325  Min(alpha.phase1) = 0  Max(alpha.phase1) = 1
MULES: Correcting alpha.phase1
MULES: Correcting alpha.phase1
MULES: Correcting alpha.phase1
Phase-1 volume fraction = 0.7325  Min(alpha.phase1) = 0  Max(alpha.phase1) = 1
smoothSolver:  Solving for alpha.phase1, Initial residual = 2.795295006e-13, Final residual = 2.795295006e-13, No Iterations 0
Phase-1 volume fraction = 0.7325  Min(alpha.phase1) = 0  Max(alpha.phase1) = 1
MULES: Correcting alpha.phase1
MULES: Correcting alpha.phase1
MULES: Correcting alpha.phase1
Phase-1 volume fraction = 0.7325  Min(alpha.phase1) = 0  Max(alpha.phase1) = 1
smoothSolver:  Solving for alpha.phase1, Initial residual = 2.795295006e-13, Final residual = 2.795295006e-13, No Iterations 0
Phase-1 volume fraction = 0.7325  Min(alpha.phase1) = 0  Max(alpha.phase1) = 1
MULES: Correcting alpha.phase1
MULES: Correcting alpha.phase1
MULES: Correcting alpha.phase1
Phase-1 volume fraction = 0.7325  Min(alpha.phase1) = 0  Max(alpha.phase1) = 1
iterator_distance 	5.305164717e-06
Beam: 0
Beam: 1
Beam: 2
Beam: 3
Beam: 4
Beam: 5
Beam: 6
Beam: 7
Beam: 8
Beam: 9
Beam: 10
Beam: 11
Beam: 12
Beam: 13
Beam: 14
Beam: 15
Beam: 16
Beam: 17
Beam: 18
Beam: 19
Beam: 20
Beam: 21
Beam: 22
Beam: 23
Beam: 24
Beam: 25
Beam: 26
Beam: 27
Beam: 28
Beam: 29
Beam: 30
Beam: 31
Beam: 32
Beam: 33
Beam: 34
Beam: 35
Beam: 36
Beam: 37
Beam: 38
Beam: 39
Beam: 40
Beam: 41
Beam: 42
Beam: 43
Beam: 44
Beam: 45
Beam: 46
Beam: 47
Beam: 48
Beam: 49
Beam: 50
Beam: 51
Beam: 52
Beam: 53
Beam: 54
Beam: 55
Beam: 56
Beam: 57
Beam: 58
Beam: 59
smoothSolver:  Solving for Uy, Initial residual = 5.992726998e-15, Final residual = 5.992726998e-15, No Iterations 0
smoothSolver:  Solving for Uz, Initial residual = 9.436148676e-15, Final residual = 9.436148676e-15, No Iterations 0
smoothSolver:  Solving for Temperature, Initial residual = 0.1092459401, Final residual = 0.0001458157969, No Iterations 1000
Correcting epsilon1, mean residual = 0, max residual = 0
GAMG:  Solving for p_rgh, Initial residual = 2.537042584e-14, Final residual = 2.537042584e-14, No Iterations 0
time step continuity errors : sum local = 1.178098157e-12, global = -2.320213113e-15, cumulative = -1.141933816e-14
GAMG:  Solving for p_rgh, Initial residual = 2.639171282e-14, Final residual = 2.639171282e-14, No Iterations 0
time step continuity errors : sum local = 1.225494911e-12, global = -2.541032719e-15, cumulative = -1.396037088e-14
GAMGPCG:  Solving for p_rgh, Initial residual = 2.665453958e-14, Final residual = 2.665453958e-14, No Iterations 0
time step continuity errors : sum local = 1.237741531e-12, global = -2.651423409e-15, cumulative = -1.661179429e-14
ExecutionTime = 10 s  ClockTime = 10 s

Courant Number mean: 7.145894154e-12 max: 5.840256682e-10
Interface Courant Number mean: 0 max: 0
deltaT = 1.523809524e-05
Time = 6.952380952e-05

smoothSolver:  Solving for alpha.phase1, Initial residual = 2.795295006e-13, Final residual = 2.795295006e-13, No Iterations 0
Phase-1 volume fraction = 0.7325  Min(alpha.phase1) = 0  Max(alpha.phase1) = 1
MULES: Correcting alpha.phase1
MULES: Correcting alpha.phase1
MULES: Correcting alpha.phase1
Phase-1 volume fraction = 0.7325  Min(alpha.phase1) = 0  Max(alpha.phase1) = 1
smoothSolver:  Solving for alpha.phase1, Initial residual = 2.795295006e-13, Final residual = 2.795295006e-13, No Iterations 0
Phase-1 volume fraction = 0.7325  Min(alpha.phase1) = 0  Max(alpha.phase1) = 1
MULES: Correcting alpha.phase1
MULES: Correcting alpha.phase1
MULES: Correcting alpha.phase1
Phase-1 volume fraction = 0.7325  Min(alpha.phase1) = 0  Max(alpha.phase1) = 1
smoothSolver:  Solving for alpha.phase1, Initial residual = 2.795295006e-13, Final residual = 2.795295006e-13, No Iterations 0
Phase-1 volume fraction = 0.7325  Min(alpha.phase1) = 0  Max(alpha.phase1) = 1
MULES: Correcting alpha.phase1
MULES: Correcting alpha.phase1
MULES: Correcting alpha.phase1
Phase-1 volume fraction = 0.7325  Min(alpha.phase1) = 0  Max(alpha.phase1) = 1
iterator_distance 	5.305164717e-06
Beam: 0
Beam: 1
Beam: 2
Beam: 3
Beam: 4
Beam: 5
Beam: 6
Beam: 7
Beam: 8
Beam: 9
Beam: 10
Beam: 11
Beam: 12
Beam: 13
Beam: 14
Beam: 15
Beam: 16
Beam: 17
Beam: 18
Beam: 19
Beam: 20
Beam: 21
Beam: 22
Beam: 23
Beam: 24
Beam: 25
Beam: 26
Beam: 27
Beam: 28
Beam: 29
Beam: 30
Beam: 31
Beam: 32
Beam: 33
Beam: 34
Beam: 35
Beam: 36
Beam: 37
Beam: 38
Beam: 39
Beam: 40
Beam: 41
Beam: 42
Beam: 43
Beam: 44
Beam: 45
Beam: 46
Beam: 47
Beam: 48
Beam: 49
Beam: 50
Beam: 51
Beam: 52
Beam: 53
Beam: 54
Beam: 55
Beam: 56
Beam: 57
Beam: 58
Beam: 59
smoothSolver:  Solving for Uy, Initial residual = 3.588065598e-15, Final residual = 3.588065598e-15, No Iterations 0
smoothSolver:  Solving for Uz, Initial residual = 5.855116389e-15, Final residual = 5.855116389e-15, No Iterations 0
smoothSolver:  Solving for Temperature, Initial residual = 0.07566763406, Final residual = 0.0001001560131, No Iterations 1000
Correcting epsilon1, mean residual = 0, max residual = 0
GAMG:  Solving for p_rgh, Initial residual = 2.979087416e-14, Final residual = 2.979087416e-14, No Iterations 0
time step continuity errors : sum local = 1.382786776e-12, global = -3.058661886e-15, cumulative = -1.967045618e-14
GAMG:  Solving for p_rgh, Initial residual = 3.058147138e-14, Final residual = 3.058147138e-14, No Iterations 0
time step continuity errors : sum local = 1.419458717e-12, global = -3.280707703e-15, cumulative = -2.295116388e-14
GAMGPCG:  Solving for p_rgh, Initial residual = 3.080350024e-14, Final residual = 3.080350024e-14, No Iterations 0
time step continuity errors : sum local = 1.429691309e-12, global = -3.391554646e-15, cumulative = -2.634271852e-14
ExecutionTime = 12.03 s  ClockTime = 13 s

Courant Number mean: 7.94054577e-12 max: 6.287546681e-10
Interface Courant Number mean: 0 max: 0
deltaT = 1.523809524e-05
Time = 8.476190476e-05

smoothSolver:  Solving for alpha.phase1, Initial residual = 2.795295006e-13, Final residual = 2.795295006e-13, No Iterations 0
Phase-1 volume fraction = 0.7325  Min(alpha.phase1) = 0  Max(alpha.phase1) = 1
MULES: Correcting alpha.phase1
MULES: Correcting alpha.phase1
MULES: Correcting alpha.phase1
Phase-1 volume fraction = 0.7325  Min(alpha.phase1) = 0  Max(alpha.phase1) = 1
smoothSolver:  Solving for alpha.phase1, Initial residual = 2.795295006e-13, Final residual = 2.795295006e-13, No Iterations 0
Phase-1 volume fraction = 0.7325  Min(alpha.phase1) = 0  Max(alpha.phase1) = 1
MULES: Correcting alpha.phase1
MULES: Correcting alpha.phase1
MULES: Correcting alpha.phase1
Phase-1 volume fraction = 0.7325  Min(alpha.phase1) = 0  Max(alpha.phase1) = 1
smoothSolver:  Solving for alpha.phase1, Initial residual = 2.795295006e-13, Final residual = 2.795295006e-13, No Iterations 0
Phase-1 volume fraction = 0.7325  Min(alpha.phase1) = 0  Max(alpha.phase1) = 1
MULES: Correcting alpha.phase1
MULES: Correcting alpha.phase1
MULES: Correcting alpha.phase1
Phase-1 volume fraction = 0.7325  Min(alpha.phase1) = 0  Max(alpha.phase1) = 1
iterator_distance 	5.305164717e-06
Beam: 0
Beam: 1
Beam: 2
Beam: 3
Beam: 4
Beam: 5
Beam: 6
Beam: 7
Beam: 8
Beam: 9
Beam: 10
Beam: 11
Beam: 12
Beam: 13
Beam: 14
Beam: 15
Beam: 16
Beam: 17
Beam: 18
Beam: 19
Beam: 20
Beam: 21
Beam: 22
Beam: 23
Beam: 24
Beam: 25
Beam: 26
Beam: 27
Beam: 28
Beam: 29
Beam: 30
Beam: 31
Beam: 32
Beam: 33
Beam: 34
Beam: 35
Beam: 36
Beam: 37
Beam: 38
Beam: 39
Beam: 40
Beam: 41
Beam: 42
Beam: 43
Beam: 44
Beam: 45
Beam: 46
Beam: 47
Beam: 48
Beam: 49
Beam: 50
Beam: 51
Beam: 52
Beam: 53
Beam: 54
Beam: 55
Beam: 56
Beam: 57
Beam: 58
Beam: 59
smoothSolver:  Solving for Uy, Initial residual = 2.446505307e-15, Final residual = 2.446505307e-15, No Iterations 0
smoothSolver:  Solving for Uz, Initial residual = 4.138427111e-15, Final residual = 4.138427111e-15, No Iterations 0
smoothSolver:  Solving for Temperature, Initial residual = 0.0583607954, Final residual = 7.788694451e-05, No Iterations 1000
Correcting epsilon1, mean residual = 0, max residual = 0
GAMG:  Solving for p_rgh, Initial residual = 3.30963182e-14, Final residual = 3.30963182e-14, No Iterations 0
time step continuity errors : sum local = 1.536550904e-12, global = -3.791302194e-15, cumulative = -3.013402072e-14
GAMG:  Solving for p_rgh, Initial residual = 3.372368696e-14, Final residual = 3.372368696e-14, No Iterations 0
time step continuity errors : sum local = 1.565735082e-12, global = -4.014340999e-15, cumulative = -3.414836172e-14
GAMGPCG:  Solving for p_rgh, Initial residual = 3.390990171e-14, Final residual = 3.390990171e-14, No Iterations 0
time step continuity errors : sum local = 1.57439285e-12, global = -4.125566334e-15, cumulative = -3.827392805e-14
ExecutionTime = 14.3 s  ClockTime = 15 s

Courant Number mean: 8.635247167e-12 max: 6.587617525e-10
Interface Courant Number mean: 0 max: 0
deltaT = 1.523809524e-05
Time = 0.0001

smoothSolver:  Solving for alpha.phase1, Initial residual = 2.795295006e-13, Final residual = 2.795295006e-13, No Iterations 0
Phase-1 volume fraction = 0.7325  Min(alpha.phase1) = 0  Max(alpha.phase1) = 1
MULES: Correcting alpha.phase1
MULES: Correcting alpha.phase1
MULES: Correcting alpha.phase1
Phase-1 volume fraction = 0.7325  Min(alpha.phase1) = 0  Max(alpha.phase1) = 1
smoothSolver:  Solving for alpha.phase1, Initial residual = 2.795295006e-13, Final residual = 2.795295006e-13, No Iterations 0
Phase-1 volume fraction = 0.7325  Min(alpha.phase1) = 0  Max(alpha.phase1) = 1
MULES: Correcting alpha.phase1
MULES: Correcting alpha.phase1
MULES: Correcting alpha.phase1
Phase-1 volume fraction = 0.7325  Min(alpha.phase1) = 0  Max(alpha.phase1) = 1
smoothSolver:  Solving for alpha.phase1, Initial residual = 2.795295006e-13, Final residual = 2.795295006e-13, No Iterations 0
Phase-1 volume fraction = 0.7325  Min(alpha.phase1) = 0  Max(alpha.phase1) = 1
MULES: Correcting alpha.phase1
MULES: Correcting alpha.phase1
MULES: Correcting alpha.phase1
Phase-1 volume fraction = 0.7325  Min(alpha.phase1) = 0  Max(alpha.phase1) = 1
iterator_distance 	5.305164717e-06
Beam: 0
Beam: 1
Beam: 2
Beam: 3
Beam: 4
Beam: 5
Beam: 6
Beam: 7
Beam: 8
Beam: 9
Beam: 10
Beam: 11
Beam: 12
Beam: 13
Beam: 14
Beam: 15
Beam: 16
Beam: 17
Beam: 18
Beam: 19
Beam: 20
Beam: 21
Beam: 22
Beam: 23
Beam: 24
Beam: 25
Beam: 26
Beam: 27
Beam: 28
Beam: 29
Beam: 30
Beam: 31
Beam: 32
Beam: 33
Beam: 34
Beam: 35
Beam: 36
Beam: 37
Beam: 38
Beam: 39
Beam: 40
Beam: 41
Beam: 42
Beam: 43
Beam: 44
Beam: 45
Beam: 46
Beam: 47
Beam: 48
Beam: 49
Beam: 50
Beam: 51
Beam: 52
Beam: 53
Beam: 54
Beam: 55
Beam: 56
Beam: 57
Beam: 58
Beam: 59
smoothSolver:  Solving for Uy, Initial residual = 1.807379006e-15, Final residual = 1.807379006e-15, No Iterations 0
smoothSolver:  Solving for Uz, Initial residual = 3.142698101e-15, Final residual = 3.142698101e-15, No Iterations 0
smoothSolver:  Solving for Temperature, Initial residual = 0.04773206429, Final residual = 6.53586231e-05, No Iterations 1000
Correcting epsilon1, mean residual = 0, max residual = 0
GAMG:  Solving for p_rgh, Initial residual = 3.56477069e-14, Final residual = 3.56477069e-14, No Iterations 0
time step continuity errors : sum local = 1.655017498e-12, global = -4.533116117e-15, cumulative = -4.280704417e-14
GAMG:  Solving for p_rgh, Initial residual = 3.614969872e-14, Final residual = 3.614969872e-14, No Iterations 0
time step continuity errors : sum local = 1.678321936e-12, global = -4.756971546e-15, cumulative = -4.756401572e-14
GAMGPCG:  Solving for p_rgh, Initial residual = 3.630491239e-14, Final residual = 3.630491239e-14, No Iterations 0
time step continuity errors : sum local = 1.68551825e-12, global = -4.868514687e-15, cumulative = -5.24325304e-14
ExecutionTime = 16.44 s  ClockTime = 17 s

Courant Number mean: 9.258398002e-12 max: 6.797091575e-10
Interface Courant Number mean: 0 max: 0
deltaT = 1.666666667e-05
Time = 0.0001166666667

smoothSolver:  Solving for alpha.phase1, Initial residual = 3.057353913e-13, Final residual = 3.057353913e-13, No Iterations 0
Phase-1 volume fraction = 0.7325  Min(alpha.phase1) = 0  Max(alpha.phase1) = 1
MULES: Correcting alpha.phase1
MULES: Correcting alpha.phase1
MULES: Correcting alpha.phase1
Phase-1 volume fraction = 0.7325  Min(alpha.phase1) = 0  Max(alpha.phase1) = 1
smoothSolver:  Solving for alpha.phase1, Initial residual = 3.057353913e-13, Final residual = 3.057353913e-13, No Iterations 0
Phase-1 volume fraction = 0.7325  Min(alpha.phase1) = 0  Max(alpha.phase1) = 1
MULES: Correcting alpha.phase1
MULES: Correcting alpha.phase1
MULES: Correcting alpha.phase1
Phase-1 volume fraction = 0.7325  Min(alpha.phase1) = 0  Max(alpha.phase1) = 1
smoothSolver:  Solving for alpha.phase1, Initial residual = 3.057353913e-13, Final residual = 3.057353913e-13, No Iterations 0
Phase-1 volume fraction = 0.7325  Min(alpha.phase1) = 0  Max(alpha.phase1) = 1
MULES: Correcting alpha.phase1
MULES: Correcting alpha.phase1
MULES: Correcting alpha.phase1
Phase-1 volume fraction = 0.7325  Min(alpha.phase1) = 0  Max(alpha.phase1) = 1
iterator_distance 	5.305164717e-06
Beam: 0
Beam: 1
Beam: 2
Beam: 3
Beam: 4
Beam: 5
Beam: 6
Beam: 7
Beam: 8
Beam: 9
Beam: 10
Beam: 11
Beam: 12
Beam: 13
Beam: 14
Beam: 15
Beam: 16
Beam: 17
Beam: 18
Beam: 19
Beam: 20
Beam: 21
Beam: 22
Beam: 23
Beam: 24
Beam: 25
Beam: 26
Beam: 27
Beam: 28
Beam: 29
Beam: 30
Beam: 31
Beam: 32
Beam: 33
Beam: 34
Beam: 35
Beam: 36
Beam: 37
Beam: 38
Beam: 39
Beam: 40
Beam: 41
Beam: 42
Beam: 43
Beam: 44
Beam: 45
Beam: 46
Beam: 47
Beam: 48
Beam: 49
Beam: 50
Beam: 51
Beam: 52
Beam: 53
Beam: 54
Beam: 55
Beam: 56
Beam: 57
Beam: 58
Beam: 59
smoothSolver:  Solving for Uy, Initial residual = 1.421379149e-15, Final residual = 1.421379149e-15, No Iterations 0
smoothSolver:  Solving for Uz, Initial residual = 2.518241564e-15, Final residual = 2.518241564e-15, No Iterations 0
smoothSolver:  Solving for Temperature, Initial residual = 0.0439749344, Final residual = 5.968431555e-05, No Iterations 1000
Correcting epsilon1, mean residual = 0, max residual = 0
GAMG:  Solving for p_rgh, Initial residual = 3.599341255e-14, Final residual = 3.599341255e-14, No Iterations 0
time step continuity errors : sum local = 1.922048943e-12, global = -5.797477521e-15, cumulative = -5.823000792e-14
GAMG:  Solving for p_rgh, Initial residual = 3.642437124e-14, Final residual = 3.642437124e-14, No Iterations 0
time step continuity errors : sum local = 1.945080312e-12, global = -6.065460872e-15, cumulative = -6.42954688e-14
GAMGPCG:  Solving for p_rgh, Initial residual = 3.656937368e-14, Final residual = 3.656937368e-14, No Iterations 0
time step continuity errors : sum local = 1.952850586e-12, global = -6.205337275e-15, cumulative = -7.050080607e-14
ExecutionTime = 18.35 s  ClockTime = 19 s

Courant Number mean: 1.080710333e-11 max: 7.629381942e-10
Interface Courant Number mean: 0 max: 0
deltaT = 1.666666667e-05
Time = 0.0001333333333

smoothSolver:  Solving for alpha.phase1, Initial residual = 3.057353913e-13, Final residual = 3.057353913e-13, No Iterations 0
Phase-1 volume fraction = 0.7325  Min(alpha.phase1) = 0  Max(alpha.phase1) = 1
MULES: Correcting alpha.phase1
MULES: Correcting alpha.phase1
MULES: Correcting alpha.phase1
Phase-1 volume fraction = 0.7325  Min(alpha.phase1) = 0  Max(alpha.phase1) = 1
smoothSolver:  Solving for alpha.phase1, Initial residual = 3.057353913e-13, Final residual = 3.057353913e-13, No Iterations 0
Phase-1 volume fraction = 0.7325  Min(alpha.phase1) = 0  Max(alpha.phase1) = 1
MULES: Correcting alpha.phase1
MULES: Correcting alpha.phase1
MULES: Correcting alpha.phase1
Phase-1 volume fraction = 0.7325  Min(alpha.phase1) = 0  Max(alpha.phase1) = 1
smoothSolver:  Solving for alpha.phase1, Initial residual = 3.057353913e-13, Final residual = 3.057353913e-13, No Iterations 0
Phase-1 volume fraction = 0.7325  Min(alpha.phase1) = 0  Max(alpha.phase1) = 1
MULES: Correcting alpha.phase1
MULES: Correcting alpha.phase1
MULES: Correcting alpha.phase1
Phase-1 volume fraction = 0.7325  Min(alpha.phase1) = 0  Max(alpha.phase1) = 1
iterator_distance 	5.305164717e-06
Beam: 0
Beam: 1
Beam: 2
Beam: 3
Beam: 4
Beam: 5
Beam: 6
Beam: 7
Beam: 8
Beam: 9
Beam: 10
Beam: 11
Beam: 12
Beam: 13
Beam: 14
Beam: 15
Beam: 16
Beam: 17
Beam: 18
Beam: 19
Beam: 20
Beam: 21
Beam: 22
Beam: 23
Beam: 24
Beam: 25
Beam: 26
Beam: 27
Beam: 28
Beam: 29
Beam: 30
Beam: 31
Beam: 32
Beam: 33
Beam: 34
Beam: 35
Beam: 36
Beam: 37
Beam: 38
Beam: 39
Beam: 40
Beam: 41
Beam: 42
Beam: 43
Beam: 44
Beam: 45
Beam: 46
Beam: 47
Beam: 48
Beam: 49
Beam: 50
Beam: 51
Beam: 52
Beam: 53
Beam: 54
Beam: 55
Beam: 56
Beam: 57
Beam: 58
Beam: 59
smoothSolver:  Solving for Uy, Initial residual = 1.179937684e-15, Final residual = 1.179937684e-15, No Iterations 0
smoothSolver:  Solving for Uz, Initial residual = 2.188570999e-15, Final residual = 2.188570999e-15, No Iterations 0
smoothSolver:  Solving for Temperature, Initial residual = 0.03788864077, Final residual = 5.032705065e-05, No Iterations 1000
Correcting epsilon1, mean residual = 0, max residual = 0
GAMG:  Solving for p_rgh, Initial residual = 3.765584107e-14, Final residual = 3.765584107e-14, No Iterations 0
time step continuity errors : sum local = 2.011273087e-12, global = -6.669093785e-15, cumulative = -7.716989986e-14
GAMG:  Solving for p_rgh, Initial residual = 3.801646022e-14, Final residual = 3.801646022e-14, No Iterations 0
time step continuity errors : sum local = 2.030555723e-12, global = -6.937927912e-15, cumulative = -8.410782777e-14
GAMGPCG:  Solving for p_rgh, Initial residual = 3.814319803e-14, Final residual = 3.814319803e-14, No Iterations 0
time step continuity errors : sum local = 2.037325728e-12, global = -7.07814897e-15, cumulative = -9.118597674e-14
ExecutionTime = 20.25 s  ClockTime = 21 s

Courant Number mean: 1.142888714e-11 max: 7.763183589e-10
Interface Courant Number mean: 0 max: 0
deltaT = 1.666666667e-05
Time = 0.00015

smoothSolver:  Solving for alpha.phase1, Initial residual = 3.057353913e-13, Final residual = 3.057353913e-13, No Iterations 0
Phase-1 volume fraction = 0.7325  Min(alpha.phase1) = 0  Max(alpha.phase1) = 1
MULES: Correcting alpha.phase1
MULES: Correcting alpha.phase1
MULES: Correcting alpha.phase1
Phase-1 volume fraction = 0.7325  Min(alpha.phase1) = 0  Max(alpha.phase1) = 1
smoothSolver:  Solving for alpha.phase1, Initial residual = 3.057353913e-13, Final residual = 3.057353913e-13, No Iterations 0
Phase-1 volume fraction = 0.7325  Min(alpha.phase1) = 0  Max(alpha.phase1) = 1
MULES: Correcting alpha.phase1
MULES: Correcting alpha.phase1
MULES: Correcting alpha.phase1
Phase-1 volume fraction = 0.7325  Min(alpha.phase1) = 0  Max(alpha.phase1) = 1
smoothSolver:  Solving for alpha.phase1, Initial residual = 3.057353913e-13, Final residual = 3.057353913e-13, No Iterations 0
Phase-1 volume fraction = 0.7325  Min(alpha.phase1) = 0  Max(alpha.phase1) = 1
MULES: Correcting alpha.phase1
MULES: Correcting alpha.phase1
MULES: Correcting alpha.phase1
Phase-1 volume fraction = 0.7325  Min(alpha.phase1) = 0  Max(alpha.phase1) = 1
iterator_distance 	5.305164717e-06
Beam: 0
Beam: 1
Beam: 2
Beam: 3
Beam: 4
Beam: 5
Beam: 6
Beam: 7
Beam: 8
Beam: 9
Beam: 10
Beam: 11
Beam: 12
Beam: 13
Beam: 14
Beam: 15
Beam: 16
Beam: 17
Beam: 18
Beam: 19
Beam: 20
Beam: 21
Beam: 22
Beam: 23
Beam: 24
Beam: 25
Beam: 26
Beam: 27
Beam: 28
Beam: 29
Beam: 30
Beam: 31
Beam: 32
Beam: 33
Beam: 34
Beam: 35
Beam: 36
Beam: 37
Beam: 38
Beam: 39
Beam: 40
Beam: 41
Beam: 42
Beam: 43
Beam: 44
Beam: 45
Beam: 46
Beam: 47
Beam: 48
Beam: 49
Beam: 50
Beam: 51
Beam: 52
Beam: 53
Beam: 54
Beam: 55
Beam: 56
Beam: 57
Beam: 58
Beam: 59
Beam: 60
smoothSolver:  Solving for Uy, Initial residual = 9.947213323e-16, Final residual = 9.947213323e-16, No Iterations 0
smoothSolver:  Solving for Uz, Initial residual = 1.892875329e-15, Final residual = 1.892875329e-15, No Iterations 0
smoothSolver:  Solving for Temperature, Initial residual = 0.03337163558, Final residual = 4.428774448e-05, No Iterations 1000
Correcting epsilon1, mean residual = 0, max residual = 0
GAMG:  Solving for p_rgh, Initial residual = 3.900006837e-14, Final residual = 3.900006837e-14, No Iterations 0
time step continuity errors : sum local = 2.083781321e-12, global = -7.564886339e-15, cumulative = -9.875086308e-14
GAMG:  Solving for p_rgh, Initial residual = 3.931017065e-14, Final residual = 3.931017065e-14, No Iterations 0
time step continuity errors : sum local = 2.100342179e-12, global = -7.834428851e-15, cumulative = -1.065852919e-13
GAMGPCG:  Solving for p_rgh, Initial residual = 3.94236e-14, Final residual = 3.94236e-14, No Iterations 0
time step continuity errors : sum local = 2.106379088e-12, global = -7.97494306e-15, cumulative = -1.14560235e-13
ExecutionTime = 22.2 s  ClockTime = 23 s

Courant Number mean: 1.200873801e-11 max: 7.861522871e-10
Interface Courant Number mean: 0 max: 0
deltaT = 1.666666667e-05
Time = 0.0001666666667

smoothSolver:  Solving for alpha.phase1, Initial residual = 3.057353913e-13, Final residual = 3.057353913e-13, No Iterations 0
Phase-1 volume fraction = 0.7325  Min(alpha.phase1) = 0  Max(alpha.phase1) = 1
MULES: Correcting alpha.phase1
MULES: Correcting alpha.phase1
MULES: Correcting alpha.phase1
Phase-1 volume fraction = 0.7325  Min(alpha.phase1) = 0  Max(alpha.phase1) = 1
smoothSolver:  Solving for alpha.phase1, Initial residual = 3.057353913e-13, Final residual = 3.057353913e-13, No Iterations 0
Phase-1 volume fraction = 0.7325  Min(alpha.phase1) = 0  Max(alpha.phase1) = 1
MULES: Correcting alpha.phase1
MULES: Correcting alpha.phase1
MULES: Correcting alpha.phase1
Phase-1 volume fraction = 0.7325  Min(alpha.phase1) = 0  Max(alpha.phase1) = 1
smoothSolver:  Solving for alpha.phase1, Initial residual = 3.057353913e-13, Final residual = 3.057353913e-13, No Iterations 0
Phase-1 volume fraction = 0.7325  Min(alpha.phase1) = 0  Max(alpha.phase1) = 1
MULES: Correcting alpha.phase1
MULES: Correcting alpha.phase1
MULES: Correcting alpha.phase1
Phase-1 volume fraction = 0.7325  Min(alpha.phase1) = 0  Max(alpha.phase1) = 1
iterator_distance 	5.305164717e-06
Beam: 0
Beam: 1
Beam: 2
Beam: 3
Beam: 4
Beam: 5
Beam: 6
Beam: 7
Beam: 8
Beam: 9
Beam: 10
Beam: 11
Beam: 12
Beam: 13
Beam: 14
Beam: 15
Beam: 16
Beam: 17
Beam: 18
Beam: 19
Beam: 20
Beam: 21
Beam: 22
Beam: 23
Beam: 24
Beam: 25
Beam: 26
Beam: 27
Beam: 28
Beam: 29
Beam: 30
Beam: 31
Beam: 32
Beam: 33
Beam: 34
Beam: 35
Beam: 36
Beam: 37
Beam: 38
Beam: 39
Beam: 40
Beam: 41
Beam: 42
Beam: 43
Beam: 44
Beam: 45
Beam: 46
Beam: 47
Beam: 48
Beam: 49
Beam: 50
Beam: 51
Beam: 52
Beam: 53
Beam: 54
Beam: 55
Beam: 56
Beam: 57
Beam: 58
Beam: 59
smoothSolver:  Solving for Uy, Initial residual = 8.626246892e-16, Final residual = 8.626246892e-16, No Iterations 0
smoothSolver:  Solving for Uz, Initial residual = 1.68426062e-15, Final residual = 1.68426062e-15, No Iterations 0
smoothSolver:  Solving for Temperature, Initial residual = 0.02988391887, Final residual = 3.996658492e-05, No Iterations 1000
Correcting epsilon1, mean residual = 0, max residual = 0
GAMG:  Solving for p_rgh, Initial residual = 4.016138532e-14, Final residual = 4.016138532e-14, No Iterations 0
time step continuity errors : sum local = 2.14562724e-12, global = -8.448095052e-15, cumulative = -1.2300833e-13
GAMG:  Solving for p_rgh, Initial residual = 4.043457281e-14, Final residual = 4.043457281e-14, No Iterations 0
time step continuity errors : sum local = 2.160220208e-12, global = -8.718234578e-15, cumulative = -1.317265646e-13
GAMGPCG:  Solving for p_rgh, Initial residual = 4.053784948e-14, Final residual = 4.053784948e-14, No Iterations 0
time step continuity errors : sum local = 2.16573698e-12, global = -8.85900022e-15, cumulative = -1.405855648e-13
ExecutionTime = 24.16 s  ClockTime = 25 s

Courant Number mean: 1.255464827e-11 max: 7.936819861e-10
Interface Courant Number mean: 0 max: 0
deltaT = 1.666666667e-05
Time = 0.0001833333333

smoothSolver:  Solving for alpha.phase1, Initial residual = 3.057353913e-13, Final residual = 3.057353913e-13, No Iterations 0
Phase-1 volume fraction = 0.7325  Min(alpha.phase1) = 0  Max(alpha.phase1) = 1
MULES: Correcting alpha.phase1
MULES: Correcting alpha.phase1
MULES: Correcting alpha.phase1
Phase-1 volume fraction = 0.7325  Min(alpha.phase1) = 0  Max(alpha.phase1) = 1
smoothSolver:  Solving for alpha.phase1, Initial residual = 3.057353913e-13, Final residual = 3.057353913e-13, No Iterations 0
Phase-1 volume fraction = 0.7325  Min(alpha.phase1) = 0  Max(alpha.phase1) = 1
MULES: Correcting alpha.phase1
MULES: Correcting alpha.phase1
MULES: Correcting alpha.phase1
Phase-1 volume fraction = 0.7325  Min(alpha.phase1) = 0  Max(alpha.phase1) = 1
smoothSolver:  Solving for alpha.phase1, Initial residual = 3.057353913e-13, Final residual = 3.057353913e-13, No Iterations 0
Phase-1 volume fraction = 0.7325  Min(alpha.phase1) = 0  Max(alpha.phase1) = 1
MULES: Correcting alpha.phase1
MULES: Correcting alpha.phase1
MULES: Correcting alpha.phase1
Phase-1 volume fraction = 0.7325  Min(alpha.phase1) = 0  Max(alpha.phase1) = 1
iterator_distance 	5.305164717e-06
Beam: 0
Beam: 1
Beam: 2
Beam: 3
Beam: 4
Beam: 5
Beam: 6
Beam: 7
Beam: 8
Beam: 9
Beam: 10
Beam: 11
Beam: 12
Beam: 13
Beam: 14
Beam: 15
Beam: 16
Beam: 17
Beam: 18
Beam: 19
Beam: 20
Beam: 21
Beam: 22
Beam: 23
Beam: 24
Beam: 25
Beam: 26
Beam: 27
Beam: 28
Beam: 29
Beam: 30
Beam: 31
Beam: 32
Beam: 33
Beam: 34
Beam: 35
Beam: 36
Beam: 37
Beam: 38
Beam: 39
Beam: 40
Beam: 41
Beam: 42
Beam: 43
Beam: 44
Beam: 45
Beam: 46
Beam: 47
Beam: 48
Beam: 49
Beam: 50
Beam: 51
Beam: 52
Beam: 53
Beam: 54
Beam: 55
Beam: 56
Beam: 57
Beam: 58
Beam: 59
smoothSolver:  Solving for Uy, Initial residual = 7.637507467e-16, Final residual = 7.637507467e-16, No Iterations 0
smoothSolver:  Solving for Uz, Initial residual = 1.530002283e-15, Final residual = 1.530002283e-15, No Iterations 0
smoothSolver:  Solving for Temperature, Initial residual = 0.02709264211, Final residual = 3.650118264e-05, No Iterations 1000
Correcting epsilon1, mean residual = 0, max residual = 0
GAMG:  Solving for p_rgh, Initial residual = 4.116342679e-14, Final residual = 4.116342679e-14, No Iterations 0
time step continuity errors : sum local = 2.199308104e-12, global = -9.334268202e-15, cumulative = -1.49919833e-13
GAMG:  Solving for p_rgh, Initial residual = 4.140376037e-14, Final residual = 4.140376037e-14, No Iterations 0
time step continuity errors : sum local = 2.2121461e-12, global = -9.604915538e-15, cumulative = -1.595247486e-13
GAMGPCG:  Solving for p_rgh, Initial residual = 4.149741945e-14, Final residual = 4.149741945e-14, No Iterations 0
time step continuity errors : sum local = 2.217149125e-12, global = -9.745898048e-15, cumulative = -1.692706466e-13
ExecutionTime = 26.14 s  ClockTime = 27 s

Courant Number mean: 1.307381135e-11 max: 7.996057927e-10
Interface Courant Number mean: 0 max: 0
deltaT = 1.666666667e-05
Time = 0.0002

smoothSolver:  Solving for alpha.phase1, Initial residual = 3.057353913e-13, Final residual = 3.057353913e-13, No Iterations 0
Phase-1 volume fraction = 0.7325  Min(alpha.phase1) = 0  Max(alpha.phase1) = 1
MULES: Correcting alpha.phase1
MULES: Correcting alpha.phase1
MULES: Correcting alpha.phase1
Phase-1 volume fraction = 0.7325  Min(alpha.phase1) = 0  Max(alpha.phase1) = 1
smoothSolver:  Solving for alpha.phase1, Initial residual = 3.057353913e-13, Final residual = 3.057353913e-13, No Iterations 0
Phase-1 volume fraction = 0.7325  Min(alpha.phase1) = 0  Max(alpha.phase1) = 1
MULES: Correcting alpha.phase1
MULES: Correcting alpha.phase1
MULES: Correcting alpha.phase1
Phase-1 volume fraction = 0.7325  Min(alpha.phase1) = 0  Max(alpha.phase1) = 1
smoothSolver:  Solving for alpha.phase1, Initial residual = 3.057353913e-13, Final residual = 3.057353913e-13, No Iterations 0
Phase-1 volume fraction = 0.7325  Min(alpha.phase1) = 0  Max(alpha.phase1) = 1
MULES: Correcting alpha.phase1
MULES: Correcting alpha.phase1
MULES: Correcting alpha.phase1
Phase-1 volume fraction = 0.7325  Min(alpha.phase1) = 0  Max(alpha.phase1) = 1
iterator_distance 	5.305164717e-06
Beam: 0
Beam: 1
Beam: 2
Beam: 3
Beam: 4
Beam: 5
Beam: 6
Beam: 7
Beam: 8
Beam: 9
Beam: 10
Beam: 11
Beam: 12
Beam: 13
Beam: 14
Beam: 15
Beam: 16
Beam: 17
Beam: 18
Beam: 19
Beam: 20
Beam: 21
Beam: 22
Beam: 23
Beam: 24
Beam: 25
Beam: 26
Beam: 27
Beam: 28
Beam: 29
Beam: 30
Beam: 31
Beam: 32
Beam: 33
Beam: 34
Beam: 35
Beam: 36
Beam: 37
Beam: 38
Beam: 39
Beam: 40
Beam: 41
Beam: 42
Beam: 43
Beam: 44
Beam: 45
Beam: 46
Beam: 47
Beam: 48
Beam: 49
Beam: 50
Beam: 51
Beam: 52
Beam: 53
Beam: 54
Beam: 55
Beam: 56
Beam: 57
Beam: 58
Beam: 59
smoothSolver:  Solving for Uy, Initial residual = 6.882309253e-16, Final residual = 6.882309253e-16, No Iterations 0
smoothSolver:  Solving for Uz, Initial residual = 1.411722921e-15, Final residual = 1.411722921e-15, No Iterations 0
smoothSolver:  Solving for Temperature, Initial residual = 0.02481864954, Final residual = 3.399195479e-05, No Iterations 1000
Correcting epsilon1, mean residual = 0, max residual = 0
GAMG:  Solving for p_rgh, Initial residual = 4.206090459e-14, Final residual = 4.206090459e-14, No Iterations 0
time step continuity errors : sum local = 2.246931402e-12, global = -1.023149618e-14, cumulative = -1.795021428e-13
GAMG:  Solving for p_rgh, Initial residual = 4.228582914e-14, Final residual = 4.228582914e-14, No Iterations 0
time step continuity errors : sum local = 2.258946288e-12, global = -1.050257842e-14, cumulative = -1.900047212e-13
GAMGPCG:  Solving for p_rgh, Initial residual = 4.2375688e-14, Final residual = 4.2375688e-14, No Iterations 0
time step continuity errors : sum local = 2.263746315e-12, global = -1.06437486e-14, cumulative = -2.006484698e-13
ExecutionTime = 28.12 s  ClockTime = 29 s

Courant Number mean: 1.356954454e-11 max: 8.043603893e-10
Interface Courant Number mean: 0 max: 0
deltaT = 2e-05
Time = 0.00022

smoothSolver:  Solving for alpha.phase1, Initial residual = 3.668824696e-13, Final residual = 3.668824696e-13, No Iterations 0
Phase-1 volume fraction = 0.7325  Min(alpha.phase1) = 0  Max(alpha.phase1) = 1
MULES: Correcting alpha.phase1
MULES: Correcting alpha.phase1
MULES: Correcting alpha.phase1
Phase-1 volume fraction = 0.7325  Min(alpha.phase1) = 0  Max(alpha.phase1) = 1
smoothSolver:  Solving for alpha.phase1, Initial residual = 3.668824696e-13, Final residual = 3.668824696e-13, No Iterations 0
Phase-1 volume fraction = 0.7325  Min(alpha.phase1) = 0  Max(alpha.phase1) = 1
MULES: Correcting alpha.phase1
MULES: Correcting alpha.phase1
MULES: Correcting alpha.phase1
Phase-1 volume fraction = 0.7325  Min(alpha.phase1) = 0  Max(alpha.phase1) = 1
smoothSolver:  Solving for alpha.phase1, Initial residual = 3.668824696e-13, Final residual = 3.668824696e-13, No Iterations 0
Phase-1 volume fraction = 0.7325  Min(alpha.phase1) = 0  Max(alpha.phase1) = 1
MULES: Correcting alpha.phase1
MULES: Correcting alpha.phase1
MULES: Correcting alpha.phase1
Phase-1 volume fraction = 0.7325  Min(alpha.phase1) = 0  Max(alpha.phase1) = 1
iterator_distance 	5.305164717e-06
Beam: 0
Beam: 1
Beam: 2
Beam: 3
Beam: 4
Beam: 5
Beam: 6
Beam: 7
Beam: 8
Beam: 9
Beam: 10
Beam: 11
Beam: 12
Beam: 13
Beam: 14
Beam: 15
Beam: 16
Beam: 17
Beam: 18
Beam: 19
Beam: 20
Beam: 21
Beam: 22
Beam: 23
Beam: 24
Beam: 25
Beam: 26
Beam: 27
Beam: 28
Beam: 29
Beam: 30
Beam: 31
Beam: 32
Beam: 33
Beam: 34
Beam: 35
Beam: 36
Beam: 37
Beam: 38
Beam: 39
Beam: 40
Beam: 41
Beam: 42
Beam: 43
Beam: 44
Beam: 45
Beam: 46
Beam: 47
Beam: 48
Beam: 49
Beam: 50
Beam: 51
Beam: 52
Beam: 53
Beam: 54
Beam: 55
Beam: 56
Beam: 57
Beam: 58
Beam: 59
smoothSolver:  Solving for Uy, Initial residual = 6.284453452e-16, Final residual = 6.284453452e-16, No Iterations 0
smoothSolver:  Solving for Uz, Initial residual = 1.32244881e-15, Final residual = 1.32244881e-15, No Iterations 0
smoothSolver:  Solving for Temperature, Initial residual = 0.02710386388, Final residual = 3.670928588e-05, No Iterations 1000
Correcting epsilon1, mean residual = 0, max residual = 0
GAMG:  Solving for p_rgh, Initial residual = 3.913588072e-14, Final residual = 3.913588072e-14, No Iterations 0
time step continuity errors : sum local = 2.765260008e-12, global = -1.338551543e-14, cumulative = -2.140339853e-13
GAMG:  Solving for p_rgh, Initial residual = 3.935759537e-14, Final residual = 3.935759537e-14, No Iterations 0
time step continuity errors : sum local = 2.780918872e-12, global = -1.376957963e-14, cumulative = -2.278035649e-13
GAMGPCG:  Solving for p_rgh, Initial residual = 3.945784858e-14, Final residual = 3.945784858e-14, No Iterations 0
time step continuity errors : sum local = 2.788001071e-12, global = -1.398822981e-14, cumulative = -2.417917947e-13
ExecutionTime = 29.97 s  ClockTime = 31 s

Courant Number mean: 1.696910018e-11 max: 9.750879198e-10
Interface Courant Number mean: 0 max: 0
deltaT = 2e-05
Time = 0.00024

smoothSolver:  Solving for alpha.phase1, Initial residual = 3.668824696e-13, Final residual = 3.668824696e-13, No Iterations 0
Phase-1 volume fraction = 0.7325  Min(alpha.phase1) = 0  Max(alpha.phase1) = 1
MULES: Correcting alpha.phase1
MULES: Correcting alpha.phase1
MULES: Correcting alpha.phase1
Phase-1 volume fraction = 0.7325  Min(alpha.phase1) = 0  Max(alpha.phase1) = 1
smoothSolver:  Solving for alpha.phase1, Initial residual = 3.668824696e-13, Final residual = 3.668824696e-13, No Iterations 0
Phase-1 volume fraction = 0.7325  Min(alpha.phase1) = 0  Max(alpha.phase1) = 1
MULES: Correcting alpha.phase1
MULES: Correcting alpha.phase1
MULES: Correcting alpha.phase1
Phase-1 volume fraction = 0.7325  Min(alpha.phase1) = 0  Max(alpha.phase1) = 1
smoothSolver:  Solving for alpha.phase1, Initial residual = 3.668824696e-13, Final residual = 3.668824696e-13, No Iterations 0
Phase-1 volume fraction = 0.7325  Min(alpha.phase1) = 0  Max(alpha.phase1) = 1
MULES: Correcting alpha.phase1
MULES: Correcting alpha.phase1
MULES: Correcting alpha.phase1
Phase-1 volume fraction = 0.7325  Min(alpha.phase1) = 0  Max(alpha.phase1) = 1
iterator_distance 	5.305164717e-06
Beam: 0
Beam: 1
Beam: 2
Beam: 3
Beam: 4
Beam: 5
Beam: 6
Beam: 7
Beam: 8
Beam: 9
Beam: 10
Beam: 11
Beam: 12
Beam: 13
Beam: 14
Beam: 15
Beam: 16
Beam: 17
Beam: 18
Beam: 19
Beam: 20
Beam: 21
Beam: 22
Beam: 23
Beam: 24
Beam: 25
Beam: 26
Beam: 27
Beam: 28
Beam: 29
Beam: 30
Beam: 31
Beam: 32
Beam: 33
Beam: 34
Beam: 35
Beam: 36
Beam: 37
Beam: 38
Beam: 39
Beam: 40
Beam: 41
Beam: 42
Beam: 43
Beam: 44
Beam: 45
Beam: 46
Beam: 47
Beam: 48
Beam: 49
Beam: 50
Beam: 51
Beam: 52
Beam: 53
Beam: 54
Beam: 55
Beam: 56
Beam: 57
Beam: 58
Beam: 59
smoothSolver:  Solving for Uy, Initial residual = 5.947748598e-16, Final residual = 5.947748598e-16, No Iterations 0
smoothSolver:  Solving for Uz, Initial residual = 1.312627674e-15, Final residual = 1.312627674e-15, No Iterations 0
smoothSolver:  Solving for Temperature, Initial residual = 0.02484867009, Final residual = 3.309233759e-05, No Iterations 1000
Correcting epsilon1, mean residual = 0, max residual = 0
GAMG:  Solving for p_rgh, Initial residual = 3.996829011e-14, Final residual = 3.996829011e-14, No Iterations 0
time step continuity errors : sum local = 2.822883059e-12, global = -1.460794274e-14, cumulative = -2.563997374e-13
GAMG:  Solving for p_rgh, Initial residual = 4.017353578e-14, Final residual = 4.017353578e-14, No Iterations 0
time step continuity errors : sum local = 2.837383345e-12, global = -1.499296405e-14, cumulative = -2.713927015e-13
GAMGPCG:  Solving for p_rgh, Initial residual = 4.026723138e-14, Final residual = 4.026723138e-14, No Iterations 0
time step continuity errors : sum local = 2.844002628e-12, global = -1.52120027e-14, cumulative = -2.866047042e-13
ExecutionTime = 31.84 s  ClockTime = 32 s

Courant Number mean: 1.760548621e-11 max: 9.804525541e-10
Interface Courant Number mean: 0 max: 0
deltaT = 2e-05
Time = 0.00026

smoothSolver:  Solving for alpha.phase1, Initial residual = 3.668824696e-13, Final residual = 3.668824696e-13, No Iterations 0
Phase-1 volume fraction = 0.7325  Min(alpha.phase1) = 0  Max(alpha.phase1) = 1
MULES: Correcting alpha.phase1
MULES: Correcting alpha.phase1
MULES: Correcting alpha.phase1
Phase-1 volume fraction = 0.7325  Min(alpha.phase1) = 0  Max(alpha.phase1) = 1
smoothSolver:  Solving for alpha.phase1, Initial residual = 3.668824696e-13, Final residual = 3.668824696e-13, No Iterations 0
Phase-1 volume fraction = 0.7325  Min(alpha.phase1) = 0  Max(alpha.phase1) = 1
MULES: Correcting alpha.phase1
MULES: Correcting alpha.phase1
MULES: Correcting alpha.phase1
Phase-1 volume fraction = 0.7325  Min(alpha.phase1) = 0  Max(alpha.phase1) = 1
smoothSolver:  Solving for alpha.phase1, Initial residual = 3.668824696e-13, Final residual = 3.668824696e-13, No Iterations 0
Phase-1 volume fraction = 0.7325  Min(alpha.phase1) = 0  Max(alpha.phase1) = 1
MULES: Correcting alpha.phase1
MULES: Correcting alpha.phase1
MULES: Correcting alpha.phase1
Phase-1 volume fraction = 0.7325  Min(alpha.phase1) = 0  Max(alpha.phase1) = 1
iterator_distance 	5.305164717e-06
Beam: 0
Beam: 1
Beam: 2
Beam: 3
Beam: 4
Beam: 5
Beam: 6
Beam: 7
Beam: 8
Beam: 9
Beam: 10
Beam: 11
Beam: 12
Beam: 13
Beam: 14
Beam: 15
Beam: 16
Beam: 17
Beam: 18
Beam: 19
Beam: 20
Beam: 21
Beam: 22
Beam: 23
Beam: 24
Beam: 25
Beam: 26
Beam: 27
Beam: 28
Beam: 29
Beam: 30
Beam: 31
Beam: 32
Beam: 33
Beam: 34
Beam: 35
Beam: 36
Beam: 37
Beam: 38
Beam: 39
Beam: 40
Beam: 41
Beam: 42
Beam: 43
Beam: 44
Beam: 45
Beam: 46
Beam: 47
Beam: 48
Beam: 49
Beam: 50
Beam: 51
Beam: 52
Beam: 53
Beam: 54
Beam: 55
Beam: 56
Beam: 57
Beam: 58
Beam: 59
smoothSolver:  Solving for Uy, Initial residual = 5.452748647e-16, Final residual = 5.452748647e-16, No Iterations 0
smoothSolver:  Solving for Uz, Initial residual = 1.236650517e-15, Final residual = 1.236650517e-15, No Iterations 0
smoothSolver:  Solving for Temperature, Initial residual = 0.02297633762, Final residual = 3.111344323e-05, No Iterations 1000
Correcting epsilon1, mean residual = 0, max residual = 0
GAMG:  Solving for p_rgh, Initial residual = 4.066857868e-14, Final residual = 4.066857868e-14, No Iterations 0
time step continuity errors : sum local = 2.873901286e-12, global = -1.583520841e-14, cumulative = -3.024399126e-13
GAMG:  Solving for p_rgh, Initial residual = 4.086124275e-14, Final residual = 4.086124275e-14, No Iterations 0
time step continuity errors : sum local = 2.887511041e-12, global = -1.622098384e-14, cumulative = -3.186608964e-13
GAMGPCG:  Solving for p_rgh, Initial residual = 4.095031454e-14, Final residual = 4.095031454e-14, No Iterations 0
time step continuity errors : sum local = 2.893803056e-12, global = -1.644033746e-14, cumulative = -3.351012339e-13
ExecutionTime = 33.72 s  ClockTime = 34 s

Courant Number mean: 1.82128301e-11 max: 9.943424014e-10
Interface Courant Number mean: 0 max: 0
deltaT = 2e-05
Time = 0.00028

smoothSolver:  Solving for alpha.phase1, Initial residual = 3.668824696e-13, Final residual = 3.668824696e-13, No Iterations 0
Phase-1 volume fraction = 0.7325  Min(alpha.phase1) = 0  Max(alpha.phase1) = 1
MULES: Correcting alpha.phase1
MULES: Correcting alpha.phase1
MULES: Correcting alpha.phase1
Phase-1 volume fraction = 0.7325  Min(alpha.phase1) = 0  Max(alpha.phase1) = 1
smoothSolver:  Solving for alpha.phase1, Initial residual = 3.668824696e-13, Final residual = 3.668824696e-13, No Iterations 0
Phase-1 volume fraction = 0.7325  Min(alpha.phase1) = 0  Max(alpha.phase1) = 1
MULES: Correcting alpha.phase1
MULES: Correcting alpha.phase1
MULES: Correcting alpha.phase1
Phase-1 volume fraction = 0.7325  Min(alpha.phase1) = 0  Max(alpha.phase1) = 1
smoothSolver:  Solving for alpha.phase1, Initial residual = 3.668824696e-13, Final residual = 3.668824696e-13, No Iterations 0
Phase-1 volume fraction = 0.7325  Min(alpha.phase1) = 0  Max(alpha.phase1) = 1
MULES: Correcting alpha.phase1
MULES: Correcting alpha.phase1
MULES: Correcting alpha.phase1
Phase-1 volume fraction = 0.7325  Min(alpha.phase1) = 0  Max(alpha.phase1) = 1
iterator_distance 	5.305164717e-06
Beam: 0
Beam: 1
Beam: 2
Beam: 3
Beam: 4
Beam: 5
Beam: 6
Beam: 7
Beam: 8
Beam: 9
Beam: 10
Beam: 11
Beam: 12
Beam: 13
Beam: 14
Beam: 15
Beam: 16
Beam: 17
Beam: 18
Beam: 19
Beam: 20
Beam: 21
Beam: 22
Beam: 23
Beam: 24
Beam: 25
Beam: 26
Beam: 27
Beam: 28
Beam: 29
Beam: 30
Beam: 31
Beam: 32
Beam: 33
Beam: 34
Beam: 35
Beam: 36
Beam: 37
Beam: 38
Beam: 39
Beam: 40
Beam: 41
Beam: 42
Beam: 43
Beam: 44
Beam: 45
Beam: 46
Beam: 47
Beam: 48
Beam: 49
Beam: 50
Beam: 51
Beam: 52
Beam: 53
Beam: 54
Beam: 55
Beam: 56
Beam: 57
Beam: 58
Beam: 59
smoothSolver:  Solving for Uy, Initial residual = 5.051237512e-16, Final residual = 5.051237512e-16, No Iterations 0
smoothSolver:  Solving for Uz, Initial residual = 1.175734168e-15, Final residual = 1.175734168e-15, No Iterations 0
smoothSolver:  Solving for Temperature, Initial residual = 0.02138493052, Final residual = 2.889675339e-05, No Iterations 1000
Correcting epsilon1, mean residual = 0, max residual = 0
GAMG:  Solving for p_rgh, Initial residual = 4.136482639e-14, Final residual = 4.136482639e-14, No Iterations 0
time step continuity errors : sum local = 2.921702046e-12, global = -1.705518644e-14, cumulative = -3.521564203e-13
GAMG:  Solving for p_rgh, Initial residual = 4.155080961e-14, Final residual = 4.155080961e-14, No Iterations 0
time step continuity errors : sum local = 2.934839206e-12, global = -1.74415579e-14, cumulative = -3.695979782e-13
GAMGPCG:  Solving for p_rgh, Initial residual = 4.163867426e-14, Final residual = 4.163867426e-14, No Iterations 0
time step continuity errors : sum local = 2.941046586e-12, global = -1.766116403e-14, cumulative = -3.872591423e-13
ExecutionTime = 35.61 s  ClockTime = 36 s

Courant Number mean: 1.879757767e-11 max: 1.014852918e-09
Interface Courant Number mean: 0 max: 0
deltaT = 2e-05
Time = 0.0003

smoothSolver:  Solving for alpha.phase1, Initial residual = 3.668824696e-13, Final residual = 3.668824696e-13, No Iterations 0
Phase-1 volume fraction = 0.7325  Min(alpha.phase1) = 0  Max(alpha.phase1) = 1
MULES: Correcting alpha.phase1
MULES: Correcting alpha.phase1
MULES: Correcting alpha.phase1
Phase-1 volume fraction = 0.7325  Min(alpha.phase1) = 0  Max(alpha.phase1) = 1
smoothSolver:  Solving for alpha.phase1, Initial residual = 3.668824696e-13, Final residual = 3.668824696e-13, No Iterations 0
Phase-1 volume fraction = 0.7325  Min(alpha.phase1) = 0  Max(alpha.phase1) = 1
MULES: Correcting alpha.phase1
MULES: Correcting alpha.phase1
MULES: Correcting alpha.phase1
Phase-1 volume fraction = 0.7325  Min(alpha.phase1) = 0  Max(alpha.phase1) = 1
smoothSolver:  Solving for alpha.phase1, Initial residual = 3.668824696e-13, Final residual = 3.668824696e-13, No Iterations 0
Phase-1 volume fraction = 0.7325  Min(alpha.phase1) = 0  Max(alpha.phase1) = 1
MULES: Correcting alpha.phase1
MULES: Correcting alpha.phase1
MULES: Correcting alpha.phase1
Phase-1 volume fraction = 0.7325  Min(alpha.phase1) = 0  Max(alpha.phase1) = 1
iterator_distance 	5.305164717e-06
Beam: 0
Beam: 1
Beam: 2
Beam: 3
Beam: 4
Beam: 5
Beam: 6
Beam: 7
Beam: 8
Beam: 9
Beam: 10
Beam: 11
Beam: 12
Beam: 13
Beam: 14
Beam: 15
Beam: 16
Beam: 17
Beam: 18
Beam: 19
Beam: 20
Beam: 21
Beam: 22
Beam: 23
Beam: 24
Beam: 25
Beam: 26
Beam: 27
Beam: 28
Beam: 29
Beam: 30
Beam: 31
Beam: 32
Beam: 33
Beam: 34
Beam: 35
Beam: 36
Beam: 37
Beam: 38
Beam: 39
Beam: 40
Beam: 41
Beam: 42
Beam: 43
Beam: 44
Beam: 45
Beam: 46
Beam: 47
Beam: 48
Beam: 49
Beam: 50
Beam: 51
Beam: 52
Beam: 53
Beam: 54
Beam: 55
Beam: 56
Beam: 57
Beam: 58
Beam: 59
smoothSolver:  Solving for Uy, Initial residual = 4.707270798e-16, Final residual = 4.707270798e-16, No Iterations 0
smoothSolver:  Solving for Uz, Initial residual = 1.125462694e-15, Final residual = 1.125462694e-15, No Iterations 0
smoothSolver:  Solving for Temperature, Initial residual = 0.02000304077, Final residual = 2.659638034e-05, No Iterations 1000
Correcting epsilon1, mean residual = 0, max residual = 0
GAMG:  Solving for p_rgh, Initial residual = 4.199145294e-14, Final residual = 4.199145294e-14, No Iterations 0
time step continuity errors : sum local = 2.967502138e-12, global = -1.828553439e-14, cumulative = -4.055446767e-13
GAMG:  Solving for p_rgh, Initial residual = 4.216961961e-14, Final residual = 4.216961961e-14, No Iterations 0
time step continuity errors : sum local = 2.980090969e-12, global = -1.867237209e-14, cumulative = -4.242170487e-13
GAMGPCG:  Solving for p_rgh, Initial residual = 4.22549099e-14, Final residual = 4.22549099e-14, No Iterations 0
time step continuity errors : sum local = 2.986115845e-12, global = -1.889217532e-14, cumulative = -4.431092241e-13
ExecutionTime = 37.74 s  ClockTime = 38 s

Courant Number mean: 1.936349664e-11 max: 1.032908466e-09
Interface Courant Number mean: 0 max: 0
deltaT = 2e-05
Time = 0.00032

smoothSolver:  Solving for alpha.phase1, Initial residual = 3.668824696e-13, Final residual = 3.668824696e-13, No Iterations 0
Phase-1 volume fraction = 0.7325  Min(alpha.phase1) = 0  Max(alpha.phase1) = 1
MULES: Correcting alpha.phase1
MULES: Correcting alpha.phase1
MULES: Correcting alpha.phase1
Phase-1 volume fraction = 0.7325  Min(alpha.phase1) = 0  Max(alpha.phase1) = 1
smoothSolver:  Solving for alpha.phase1, Initial residual = 3.668824696e-13, Final residual = 3.668824696e-13, No Iterations 0
Phase-1 volume fraction = 0.7325  Min(alpha.phase1) = 0  Max(alpha.phase1) = 1
MULES: Correcting alpha.phase1
MULES: Correcting alpha.phase1
MULES: Correcting alpha.phase1
Phase-1 volume fraction = 0.7325  Min(alpha.phase1) = 0  Max(alpha.phase1) = 1
smoothSolver:  Solving for alpha.phase1, Initial residual = 3.668824696e-13, Final residual = 3.668824696e-13, No Iterations 0
Phase-1 volume fraction = 0.7325  Min(alpha.phase1) = 0  Max(alpha.phase1) = 1
MULES: Correcting alpha.phase1
MULES: Correcting alpha.phase1
MULES: Correcting alpha.phase1
Phase-1 volume fraction = 0.7325  Min(alpha.phase1) = 0  Max(alpha.phase1) = 1
iterator_distance 	5.305164717e-06
Beam: 0
Beam: 1
Beam: 2
Beam: 3
Beam: 4
Beam: 5
Beam: 6
Beam: 7
Beam: 8
Beam: 9
Beam: 10
Beam: 11
Beam: 12
Beam: 13
Beam: 14
Beam: 15
Beam: 16
Beam: 17
Beam: 18
Beam: 19
Beam: 20
Beam: 21
Beam: 22
Beam: 23
Beam: 24
Beam: 25
Beam: 26
Beam: 27
Beam: 28
Beam: 29
Beam: 30
Beam: 31
Beam: 32
Beam: 33
Beam: 34
Beam: 35
Beam: 36
Beam: 37
Beam: 38
Beam: 39
Beam: 40
Beam: 41
Beam: 42
Beam: 43
Beam: 44
Beam: 45
Beam: 46
Beam: 47
Beam: 48
Beam: 49
Beam: 50
Beam: 51
Beam: 52
Beam: 53
Beam: 54
Beam: 55
Beam: 56
Beam: 57
Beam: 58
Beam: 59
smoothSolver:  Solving for Uy, Initial residual = 4.426354261e-16, Final residual = 4.426354261e-16, No Iterations 0
smoothSolver:  Solving for Uz, Initial residual = 1.082466452e-15, Final residual = 1.082466452e-15, No Iterations 0
smoothSolver:  Solving for Temperature, Initial residual = 0.0188068987, Final residual = 2.505780852e-05, No Iterations 1000
Correcting epsilon1, mean residual = 0, max residual = 0
GAMG:  Solving for p_rgh, Initial residual = 4.2645757e-14, Final residual = 4.2645757e-14, No Iterations 0
time step continuity errors : sum local = 3.011418962e-12, global = -1.951952045e-14, cumulative = -4.626287445e-13
GAMG:  Solving for p_rgh, Initial residual = 4.281577386e-14, Final residual = 4.281577386e-14, No Iterations 0
time step continuity errors : sum local = 3.023427896e-12, global = -1.990671174e-14, cumulative = -4.825354563e-13
GAMGPCG:  Solving for p_rgh, Initial residual = 4.289665257e-14, Final residual = 4.289665257e-14, No Iterations 0
time step continuity errors : sum local = 3.029141402e-12, global = -2.012666084e-14, cumulative = -5.026621171e-13
ExecutionTime = 39.72 s  ClockTime = 40 s

Courant Number mean: 1.991193767e-11 max: 1.048881215e-09
Interface Courant Number mean: 0 max: 0
deltaT = 2e-05
Time = 0.00034

smoothSolver:  Solving for alpha.phase1, Initial residual = 3.668824696e-13, Final residual = 3.668824696e-13, No Iterations 0
Phase-1 volume fraction = 0.7325  Min(alpha.phase1) = 0  Max(alpha.phase1) = 1
MULES: Correcting alpha.phase1
MULES: Correcting alpha.phase1
MULES: Correcting alpha.phase1
Phase-1 volume fraction = 0.7325  Min(alpha.phase1) = 0  Max(alpha.phase1) = 1
smoothSolver:  Solving for alpha.phase1, Initial residual = 3.668824696e-13, Final residual = 3.668824696e-13, No Iterations 0
Phase-1 volume fraction = 0.7325  Min(alpha.phase1) = 0  Max(alpha.phase1) = 1
MULES: Correcting alpha.phase1
MULES: Correcting alpha.phase1
MULES: Correcting alpha.phase1
Phase-1 volume fraction = 0.7325  Min(alpha.phase1) = 0  Max(alpha.phase1) = 1
smoothSolver:  Solving for alpha.phase1, Initial residual = 3.668824696e-13, Final residual = 3.668824696e-13, No Iterations 0
Phase-1 volume fraction = 0.7325  Min(alpha.phase1) = 0  Max(alpha.phase1) = 1
MULES: Correcting alpha.phase1
MULES: Correcting alpha.phase1
MULES: Correcting alpha.phase1
Phase-1 volume fraction = 0.7325  Min(alpha.phase1) = 0  Max(alpha.phase1) = 1
iterator_distance 	5.305164717e-06
Beam: 0
Beam: 1
Beam: 2
Beam: 3
Beam: 4
Beam: 5
Beam: 6
Beam: 7
Beam: 8
Beam: 9
Beam: 10
Beam: 11
Beam: 12
Beam: 13
Beam: 14
Beam: 15
Beam: 16
Beam: 17
Beam: 18
Beam: 19
Beam: 20
Beam: 21
Beam: 22
Beam: 23
Beam: 24
Beam: 25
Beam: 26
Beam: 27
Beam: 28
Beam: 29
Beam: 30
Beam: 31
Beam: 32
Beam: 33
Beam: 34
Beam: 35
Beam: 36
Beam: 37
Beam: 38
Beam: 39
Beam: 40
Beam: 41
Beam: 42
Beam: 43
Beam: 44
Beam: 45
Beam: 46
Beam: 47
Beam: 48
Beam: 49
Beam: 50
Beam: 51
Beam: 52
Beam: 53
Beam: 54
Beam: 55
Beam: 56
Beam: 57
Beam: 58
Beam: 59
smoothSolver:  Solving for Uy, Initial residual = 4.176163968e-16, Final residual = 4.176163968e-16, No Iterations 0
smoothSolver:  Solving for Uz, Initial residual = 1.044209672e-15, Final residual = 1.044209672e-15, No Iterations 0
smoothSolver:  Solving for Temperature, Initial residual = 0.01775049704, Final residual = 2.397289427e-05, No Iterations 1000
Correcting epsilon1, mean residual = 0, max residual = 0
GAMG:  Solving for p_rgh, Initial residual = 4.323540784e-14, Final residual = 4.323540784e-14, No Iterations 0
time step continuity errors : sum local = 3.052680529e-12, global = -2.076577144e-14, cumulative = -5.234278885e-13
GAMG:  Solving for p_rgh, Initial residual = 4.339718914e-14, Final residual = 4.339718914e-14, No Iterations 0
time step continuity errors : sum local = 3.06410873e-12, global = -2.11532141e-14, cumulative = -5.445811026e-13
GAMGPCG:  Solving for p_rgh, Initial residual = 4.347487707e-14, Final residual = 4.347487707e-14, No Iterations 0
time step continuity errors : sum local = 3.069596591e-12, global = -2.137326019e-14, cumulative = -5.659543628e-13
ExecutionTime = 41.35 s  ClockTime = 42 s

Courant Number mean: 2.044352743e-11 max: 1.063078385e-09
Interface Courant Number mean: 0 max: 0
deltaT = 2e-05
Time = 0.00036

smoothSolver:  Solving for alpha.phase1, Initial residual = 3.668824696e-13, Final residual = 3.668824696e-13, No Iterations 0
Phase-1 volume fraction = 0.7325  Min(alpha.phase1) = 0  Max(alpha.phase1) = 1
MULES: Correcting alpha.phase1
MULES: Correcting alpha.phase1
MULES: Correcting alpha.phase1
Phase-1 volume fraction = 0.7325  Min(alpha.phase1) = 0  Max(alpha.phase1) = 1
smoothSolver:  Solving for alpha.phase1, Initial residual = 3.668824696e-13, Final residual = 3.668824696e-13, No Iterations 0
Phase-1 volume fraction = 0.7325  Min(alpha.phase1) = 0  Max(alpha.phase1) = 1
MULES: Correcting alpha.phase1
MULES: Correcting alpha.phase1
MULES: Correcting alpha.phase1
Phase-1 volume fraction = 0.7325  Min(alpha.phase1) = 0  Max(alpha.phase1) = 1
smoothSolver:  Solving for alpha.phase1, Initial residual = 3.668824696e-13, Final residual = 3.668824696e-13, No Iterations 0
Phase-1 volume fraction = 0.7325  Min(alpha.phase1) = 0  Max(alpha.phase1) = 1
MULES: Correcting alpha.phase1
MULES: Correcting alpha.phase1
MULES: Correcting alpha.phase1
Phase-1 volume fraction = 0.7325  Min(alpha.phase1) = 0  Max(alpha.phase1) = 1
iterator_distance 	5.305164717e-06
Beam: 0
Beam: 1
Beam: 2
Beam: 3
Beam: 4
Beam: 5
Beam: 6
Beam: 7
Beam: 8
Beam: 9
Beam: 10
Beam: 11
Beam: 12
Beam: 13
Beam: 14
Beam: 15
Beam: 16
Beam: 17
Beam: 18
Beam: 19
Beam: 20
Beam: 21
Beam: 22
Beam: 23
Beam: 24
Beam: 25
Beam: 26
Beam: 27
Beam: 28
Beam: 29
Beam: 30
Beam: 31
Beam: 32
Beam: 33
Beam: 34
Beam: 35
Beam: 36
Beam: 37
Beam: 38
Beam: 39
Beam: 40
Beam: 41
Beam: 42
Beam: 43
Beam: 44
Beam: 45
Beam: 46
Beam: 47
Beam: 48
Beam: 49
Beam: 50
Beam: 51
Beam: 52
Beam: 53
Beam: 54
Beam: 55
Beam: 56
Beam: 57
Beam: 58
Beam: 59
smoothSolver:  Solving for Uy, Initial residual = 3.96071252e-16, Final residual = 3.96071252e-16, No Iterations 0
smoothSolver:  Solving for Uz, Initial residual = 1.01361476e-15, Final residual = 1.01361476e-15, No Iterations 0
smoothSolver:  Solving for Temperature, Initial residual = 0.01681275137, Final residual = 2.247178777e-05, No Iterations 1000
Correcting epsilon1, mean residual = 0, max residual = 0
GAMG:  Solving for p_rgh, Initial residual = 4.377599157e-14, Final residual = 4.377599157e-14, No Iterations 0
time step continuity errors : sum local = 3.092264868e-12, global = -2.201550248e-14, cumulative = -5.879698653e-13
GAMG:  Solving for p_rgh, Initial residual = 4.393051038e-14, Final residual = 4.393051038e-14, No Iterations 0
time step continuity errors : sum local = 3.103180037e-12, global = -2.240309975e-14, cumulative = -6.103729651e-13
GAMGPCG:  Solving for p_rgh, Initial residual = 4.400459371e-14, Final residual = 4.400459371e-14, No Iterations 0
time step continuity errors : sum local = 3.108412559e-12, global = -2.262319492e-14, cumulative = -6.3299616e-13
ExecutionTime = 42.87 s  ClockTime = 44 s

Courant Number mean: 2.096050518e-11 max: 1.075754675e-09
Interface Courant Number mean: 0 max: 0
deltaT = 2e-05
Time = 0.00038

smoothSolver:  Solving for alpha.phase1, Initial residual = 3.668824696e-13, Final residual = 3.668824696e-13, No Iterations 0
Phase-1 volume fraction = 0.7325  Min(alpha.phase1) = 0  Max(alpha.phase1) = 1
MULES: Correcting alpha.phase1
MULES: Correcting alpha.phase1
MULES: Correcting alpha.phase1
Phase-1 volume fraction = 0.7325  Min(alpha.phase1) = 0  Max(alpha.phase1) = 1
smoothSolver:  Solving for alpha.phase1, Initial residual = 3.668824696e-13, Final residual = 3.668824696e-13, No Iterations 0
Phase-1 volume fraction = 0.7325  Min(alpha.phase1) = 0  Max(alpha.phase1) = 1
MULES: Correcting alpha.phase1
MULES: Correcting alpha.phase1
MULES: Correcting alpha.phase1
Phase-1 volume fraction = 0.7325  Min(alpha.phase1) = 0  Max(alpha.phase1) = 1
smoothSolver:  Solving for alpha.phase1, Initial residual = 3.668824696e-13, Final residual = 3.668824696e-13, No Iterations 0
Phase-1 volume fraction = 0.7325  Min(alpha.phase1) = 0  Max(alpha.phase1) = 1
MULES: Correcting alpha.phase1
MULES: Correcting alpha.phase1
MULES: Correcting alpha.phase1
Phase-1 volume fraction = 0.7325  Min(alpha.phase1) = 0  Max(alpha.phase1) = 1
iterator_distance 	5.305164717e-06
Beam: 0
Beam: 1
Beam: 2
Beam: 3
Beam: 4
Beam: 5
Beam: 6
Beam: 7
Beam: 8
Beam: 9
Beam: 10
Beam: 11
Beam: 12
Beam: 13
Beam: 14
Beam: 15
Beam: 16
Beam: 17
Beam: 18
Beam: 19
Beam: 20
Beam: 21
Beam: 22
Beam: 23
Beam: 24
Beam: 25
Beam: 26
Beam: 27
Beam: 28
Beam: 29
Beam: 30
Beam: 31
Beam: 32
Beam: 33
Beam: 34
Beam: 35
Beam: 36
Beam: 37
Beam: 38
Beam: 39
Beam: 40
Beam: 41
Beam: 42
Beam: 43
Beam: 44
Beam: 45
Beam: 46
Beam: 47
Beam: 48
Beam: 49
Beam: 50
Beam: 51
Beam: 52
Beam: 53
Beam: 54
Beam: 55
Beam: 56
Beam: 57
Beam: 58
Beam: 59
smoothSolver:  Solving for Uy, Initial residual = 3.766102987e-16, Final residual = 3.766102987e-16, No Iterations 0
smoothSolver:  Solving for Uz, Initial residual = 9.840338035e-16, Final residual = 9.840338035e-16, No Iterations 0
smoothSolver:  Solving for Temperature, Initial residual = 0.01597488952, Final residual = 2.131163807e-05, No Iterations 1000
Correcting epsilon1, mean residual = 0, max residual = 0
GAMG:  Solving for p_rgh, Initial residual = 4.431913573e-14, Final residual = 4.431913573e-14, No Iterations 0
time step continuity errors : sum local = 3.129623529e-12, global = -2.323456028e-14, cumulative = -6.562307203e-13
GAMG:  Solving for p_rgh, Initial residual = 4.446625856e-14, Final residual = 4.446625856e-14, No Iterations 0
time step continuity errors : sum local = 3.140016547e-12, global = -2.362221835e-14, cumulative = -6.798529386e-13
GAMGPCG:  Solving for p_rgh, Initial residual = 4.453759717e-14, Final residual = 4.453759717e-14, No Iterations 0
time step continuity errors : sum local = 3.145056337e-12, global = -2.384231501e-14, cumulative = -7.036952536e-13
ExecutionTime = 44.48 s  ClockTime = 45 s

Courant Number mean: 2.146400217e-11 max: 1.087122175e-09
Interface Courant Number mean: 0 max: 0
deltaT = 2e-05
Time = 0.0004

smoothSolver:  Solving for alpha.phase1, Initial residual = 3.668824696e-13, Final residual = 3.668824696e-13, No Iterations 0
Phase-1 volume fraction = 0.7325  Min(alpha.phase1) = 0  Max(alpha.phase1) = 1
MULES: Correcting alpha.phase1
MULES: Correcting alpha.phase1
MULES: Correcting alpha.phase1
Phase-1 volume fraction = 0.7325  Min(alpha.phase1) = 0  Max(alpha.phase1) = 1
smoothSolver:  Solving for alpha.phase1, Initial residual = 3.668824696e-13, Final residual = 3.668824696e-13, No Iterations 0
Phase-1 volume fraction = 0.7325  Min(alpha.phase1) = 0  Max(alpha.phase1) = 1
MULES: Correcting alpha.phase1
MULES: Correcting alpha.phase1
MULES: Correcting alpha.phase1
Phase-1 volume fraction = 0.7325  Min(alpha.phase1) = 0  Max(alpha.phase1) = 1
smoothSolver:  Solving for alpha.phase1, Initial residual = 3.668824696e-13, Final residual = 3.668824696e-13, No Iterations 0
Phase-1 volume fraction = 0.7325  Min(alpha.phase1) = 0  Max(alpha.phase1) = 1
MULES: Correcting alpha.phase1
MULES: Correcting alpha.phase1
MULES: Correcting alpha.phase1
Phase-1 volume fraction = 0.7325  Min(alpha.phase1) = 0  Max(alpha.phase1) = 1
iterator_distance 	5.305164717e-06
Beam: 0
Beam: 1
Beam: 2
Beam: 3
Beam: 4
Beam: 5
Beam: 6
Beam: 7
Beam: 8
Beam: 9
Beam: 10
Beam: 11
Beam: 12
Beam: 13
Beam: 14
Beam: 15
Beam: 16
Beam: 17
Beam: 18
Beam: 19
Beam: 20
Beam: 21
Beam: 22
Beam: 23
Beam: 24
Beam: 25
Beam: 26
Beam: 27
Beam: 28
Beam: 29
Beam: 30
Beam: 31
Beam: 32
Beam: 33
Beam: 34
Beam: 35
Beam: 36
Beam: 37
Beam: 38
Beam: 39
Beam: 40
Beam: 41
Beam: 42
Beam: 43
Beam: 44
Beam: 45
Beam: 46
Beam: 47
Beam: 48
Beam: 49
Beam: 50
Beam: 51
Beam: 52
Beam: 53
Beam: 54
Beam: 55
Beam: 56
Beam: 57
Beam: 58
Beam: 59
smoothSolver:  Solving for Uy, Initial residual = 3.604851443e-16, Final residual = 3.604851443e-16, No Iterations 0
smoothSolver:  Solving for Uz, Initial residual = 9.60587885e-16, Final residual = 9.60587885e-16, No Iterations 0
smoothSolver:  Solving for Temperature, Initial residual = 0.0152197473, Final residual = 2.045059102e-05, No Iterations 1000
Correcting epsilon1, mean residual = 0, max residual = 0
GAMG:  Solving for p_rgh, Initial residual = 4.483189167e-14, Final residual = 4.483189167e-14, No Iterations 0
time step continuity errors : sum local = 3.165523971e-12, global = -2.447795347e-14, cumulative = -7.281732071e-13
GAMG:  Solving for p_rgh, Initial residual = 4.497247323e-14, Final residual = 4.497247323e-14, No Iterations 0
time step continuity errors : sum local = 3.175418344e-12, global = -2.486557929e-14, cumulative = -7.530387864e-13
GAMGPCG:  Solving for p_rgh, Initial residual = 4.504041755e-14, Final residual = 4.504041755e-14, No Iterations 0
time step continuity errors : sum local = 3.180201991e-12, global = -2.50856296e-14, cumulative = -7.78124416e-13
ExecutionTime = 46.07 s  ClockTime = 47 s

Courant Number mean: 2.195505622e-11 max: 1.097358258e-09
Interface Courant Number mean: 0 max: 0
deltaT = 2e-05
Time = 0.00042

smoothSolver:  Solving for alpha.phase1, Initial residual = 3.668824696e-13, Final residual = 3.668824696e-13, No Iterations 0
Phase-1 volume fraction = 0.7325  Min(alpha.phase1) = 0  Max(alpha.phase1) = 1
MULES: Correcting alpha.phase1
MULES: Correcting alpha.phase1
MULES: Correcting alpha.phase1
Phase-1 volume fraction = 0.7325  Min(alpha.phase1) = 0  Max(alpha.phase1) = 1
smoothSolver:  Solving for alpha.phase1, Initial residual = 3.668824696e-13, Final residual = 3.668824696e-13, No Iterations 0
Phase-1 volume fraction = 0.7325  Min(alpha.phase1) = 0  Max(alpha.phase1) = 1
MULES: Correcting alpha.phase1
MULES: Correcting alpha.phase1
MULES: Correcting alpha.phase1
Phase-1 volume fraction = 0.7325  Min(alpha.phase1) = 0  Max(alpha.phase1) = 1
smoothSolver:  Solving for alpha.phase1, Initial residual = 3.668824696e-13, Final residual = 3.668824696e-13, No Iterations 0
Phase-1 volume fraction = 0.7325  Min(alpha.phase1) = 0  Max(alpha.phase1) = 1
MULES: Correcting alpha.phase1
MULES: Correcting alpha.phase1
MULES: Correcting alpha.phase1
Phase-1 volume fraction = 0.7325  Min(alpha.phase1) = 0  Max(alpha.phase1) = 1
iterator_distance 	5.305164717e-06
Beam: 0
Beam: 1
Beam: 2
Beam: 3
Beam: 4
Beam: 5
Beam: 6
Beam: 7
Beam: 8
Beam: 9
Beam: 10
Beam: 11
Beam: 12
Beam: 13
Beam: 14
Beam: 15
Beam: 16
Beam: 17
Beam: 18
Beam: 19
Beam: 20
Beam: 21
Beam: 22
Beam: 23
Beam: 24
Beam: 25
Beam: 26
Beam: 27
Beam: 28
Beam: 29
Beam: 30
Beam: 31
Beam: 32
Beam: 33
Beam: 34
Beam: 35
Beam: 36
Beam: 37
Beam: 38
Beam: 39
Beam: 40
Beam: 41
Beam: 42
Beam: 43
Beam: 44
Beam: 45
Beam: 46
Beam: 47
Beam: 48
Beam: 49
Beam: 50
Beam: 51
Beam: 52
Beam: 53
Beam: 54
Beam: 55
Beam: 56
Beam: 57
Beam: 58
Beam: 59
smoothSolver:  Solving for Uy, Initial residual = 3.442975886e-16, Final residual = 3.442975886e-16, No Iterations 0
smoothSolver:  Solving for Uz, Initial residual = 9.392010653e-16, Final residual = 9.392010653e-16, No Iterations 0
smoothSolver:  Solving for Temperature, Initial residual = 0.01453614526, Final residual = 1.964691261e-05, No Iterations 1000
Correcting epsilon1, mean residual = 0, max residual = 0
GAMG:  Solving for p_rgh, Initial residual = 4.530854297e-14, Final residual = 4.530854297e-14, No Iterations 0
time step continuity errors : sum local = 3.199602871e-12, global = -2.571639722e-14, cumulative = -8.038408132e-13
GAMG:  Solving for p_rgh, Initial residual = 4.544143249e-14, Final residual = 4.544143249e-14, No Iterations 0
time step continuity errors : sum local = 3.208990162e-12, global = -2.610389775e-14, cumulative = -8.29944711e-13
GAMGPCG:  Solving for p_rgh, Initial residual = 4.550603995e-14, Final residual = 4.550603995e-14, No Iterations 0
time step continuity errors : sum local = 3.213554021e-12, global = -2.63238535e-14, cumulative = -8.562685645e-13
ExecutionTime = 47.52 s  ClockTime = 48 s

Courant Number mean: 2.243367322e-11 max: 1.106611917e-09
Interface Courant Number mean: 0 max: 0
deltaT = 2e-05
Time = 0.00044

smoothSolver:  Solving for alpha.phase1, Initial residual = 3.668824696e-13, Final residual = 3.668824696e-13, No Iterations 0
Phase-1 volume fraction = 0.7325  Min(alpha.phase1) = 0  Max(alpha.phase1) = 1
MULES: Correcting alpha.phase1
MULES: Correcting alpha.phase1
MULES: Correcting alpha.phase1
Phase-1 volume fraction = 0.7325  Min(alpha.phase1) = 0  Max(alpha.phase1) = 1
smoothSolver:  Solving for alpha.phase1, Initial residual = 3.668824696e-13, Final residual = 3.668824696e-13, No Iterations 0
Phase-1 volume fraction = 0.7325  Min(alpha.phase1) = 0  Max(alpha.phase1) = 1
MULES: Correcting alpha.phase1
MULES: Correcting alpha.phase1
MULES: Correcting alpha.phase1
Phase-1 volume fraction = 0.7325  Min(alpha.phase1) = 0  Max(alpha.phase1) = 1
smoothSolver:  Solving for alpha.phase1, Initial residual = 3.668824696e-13, Final residual = 3.668824696e-13, No Iterations 0
Phase-1 volume fraction = 0.7325  Min(alpha.phase1) = 0  Max(alpha.phase1) = 1
MULES: Correcting alpha.phase1
MULES: Correcting alpha.phase1
MULES: Correcting alpha.phase1
Phase-1 volume fraction = 0.7325  Min(alpha.phase1) = 0  Max(alpha.phase1) = 1
iterator_distance 	5.305164717e-06
Beam: 0
Beam: 1
Beam: 2
Beam: 3
Beam: 4
Beam: 5
Beam: 6
Beam: 7
Beam: 8
Beam: 9
Beam: 10
Beam: 11
Beam: 12
Beam: 13
Beam: 14
Beam: 15
Beam: 16
Beam: 17
Beam: 18
Beam: 19
Beam: 20
Beam: 21
Beam: 22
Beam: 23
Beam: 24
Beam: 25
Beam: 26
Beam: 27
Beam: 28
Beam: 29
Beam: 30
Beam: 31
Beam: 32
Beam: 33
Beam: 34
Beam: 35
Beam: 36
Beam: 37
Beam: 38
Beam: 39
Beam: 40
Beam: 41
Beam: 42
Beam: 43
Beam: 44
Beam: 45
Beam: 46
Beam: 47
Beam: 48
Beam: 49
Beam: 50
Beam: 51
Beam: 52
Beam: 53
Beam: 54
Beam: 55
Beam: 56
Beam: 57
Beam: 58
Beam: 59
smoothSolver:  Solving for Uy, Initial residual = 3.302554428e-16, Final residual = 3.302554428e-16, No Iterations 0
smoothSolver:  Solving for Uz, Initial residual = 9.168264057e-16, Final residual = 9.168264057e-16, No Iterations 0
smoothSolver:  Solving for Temperature, Initial residual = 0.013912853, Final residual = 1.860541856e-05, No Iterations 1000
Correcting epsilon1, mean residual = 0, max residual = 0
GAMG:  Solving for p_rgh, Initial residual = 4.575847566e-14, Final residual = 4.575847566e-14, No Iterations 0
time step continuity errors : sum local = 3.231965129e-12, global = -2.695314303e-14, cumulative = -8.832217075e-13
GAMG:  Solving for p_rgh, Initial residual = 4.588528237e-14, Final residual = 4.588528237e-14, No Iterations 0
time step continuity errors : sum local = 3.240925767e-12, global = -2.734042462e-14, cumulative = -9.105621321e-13
GAMGPCG:  Solving for p_rgh, Initial residual = 4.594679971e-14, Final residual = 4.594679971e-14, No Iterations 0
time step continuity errors : sum local = 3.245271544e-12, global = -2.756023714e-14, cumulative = -9.381223692e-13
ExecutionTime = 48.85 s  ClockTime = 50 s

Courant Number mean: 2.29017542e-11 max: 1.115008842e-09
Interface Courant Number mean: 0 max: 0
deltaT = 2e-05
Time = 0.00046

smoothSolver:  Solving for alpha.phase1, Initial residual = 3.668824696e-13, Final residual = 3.668824696e-13, No Iterations 0
Phase-1 volume fraction = 0.7325  Min(alpha.phase1) = 0  Max(alpha.phase1) = 1
MULES: Correcting alpha.phase1
MULES: Correcting alpha.phase1
MULES: Correcting alpha.phase1
Phase-1 volume fraction = 0.7325  Min(alpha.phase1) = 0  Max(alpha.phase1) = 1
smoothSolver:  Solving for alpha.phase1, Initial residual = 3.668824696e-13, Final residual = 3.668824696e-13, No Iterations 0
Phase-1 volume fraction = 0.7325  Min(alpha.phase1) = 0  Max(alpha.phase1) = 1
MULES: Correcting alpha.phase1
MULES: Correcting alpha.phase1
MULES: Correcting alpha.phase1
Phase-1 volume fraction = 0.7325  Min(alpha.phase1) = 0  Max(alpha.phase1) = 1
smoothSolver:  Solving for alpha.phase1, Initial residual = 3.668824696e-13, Final residual = 3.668824696e-13, No Iterations 0
Phase-1 volume fraction = 0.7325  Min(alpha.phase1) = 0  Max(alpha.phase1) = 1
MULES: Correcting alpha.phase1
MULES: Correcting alpha.phase1
MULES: Correcting alpha.phase1
Phase-1 volume fraction = 0.7325  Min(alpha.phase1) = 0  Max(alpha.phase1) = 1
iterator_distance 	5.305164717e-06
Beam: 0
Beam: 1
Beam: 2
Beam: 3
Beam: 4
Beam: 5
Beam: 6
Beam: 7
Beam: 8
Beam: 9
Beam: 10
Beam: 11
Beam: 12
Beam: 13
Beam: 14
Beam: 15
Beam: 16
Beam: 17
Beam: 18
Beam: 19
Beam: 20
Beam: 21
Beam: 22
Beam: 23
Beam: 24
Beam: 25
Beam: 26
Beam: 27
Beam: 28
Beam: 29
Beam: 30
Beam: 31
Beam: 32
Beam: 33
Beam: 34
Beam: 35
Beam: 36
Beam: 37
Beam: 38
Beam: 39
Beam: 40
Beam: 41
Beam: 42
Beam: 43
Beam: 44
Beam: 45
Beam: 46
Beam: 47
Beam: 48
Beam: 49
Beam: 50
Beam: 51
Beam: 52
Beam: 53
Beam: 54
Beam: 55
Beam: 56
Beam: 57
Beam: 58
Beam: 59
smoothSolver:  Solving for Uy, Initial residual = 3.177170557e-16, Final residual = 3.177170557e-16, No Iterations 0
smoothSolver:  Solving for Uz, Initial residual = 8.983315981e-16, Final residual = 8.983315981e-16, No Iterations 0
smoothSolver:  Solving for Temperature, Initial residual = 0.01334266601, Final residual = 1.789485705e-05, No Iterations 1000
Correcting epsilon1, mean residual = 0, max residual = 0
GAMG:  Solving for p_rgh, Initial residual = 4.619092115e-14, Final residual = 4.619092115e-14, No Iterations 0
time step continuity errors : sum local = 3.262664469e-12, global = -2.81887289e-14, cumulative = -9.663110981e-13
GAMG:  Solving for p_rgh, Initial residual = 4.631142947e-14, Final residual = 4.631142947e-14, No Iterations 0
time step continuity errors : sum local = 3.271177155e-12, global = -2.857569717e-14, cumulative = -9.948867953e-13
GAMGPCG:  Solving for p_rgh, Initial residual = 4.637007804e-14, Final residual = 4.637007804e-14, No Iterations 0
time step continuity errors : sum local = 3.275320079e-12, global = -2.879531749e-14, cumulative = -1.023682113e-12
ExecutionTime = 50.19 s  ClockTime = 51 s

Courant Number mean: 2.335850716e-11 max: 1.122655515e-09
Interface Courant Number mean: 0 max: 0
deltaT = 2e-05
Time = 0.00048

smoothSolver:  Solving for alpha.phase1, Initial residual = 3.668824696e-13, Final residual = 3.668824696e-13, No Iterations 0
Phase-1 volume fraction = 0.7325  Min(alpha.phase1) = 0  Max(alpha.phase1) = 1
MULES: Correcting alpha.phase1
MULES: Correcting alpha.phase1
MULES: Correcting alpha.phase1
Phase-1 volume fraction = 0.7325  Min(alpha.phase1) = 0  Max(alpha.phase1) = 1
smoothSolver:  Solving for alpha.phase1, Initial residual = 3.668824696e-13, Final residual = 3.668824696e-13, No Iterations 0
[...]
smoothSolver:  Solving for alpha.phase1, Initial residual = 3.668824696e-13, Final residual = 3.668824696e-13, No Iterations 0
Phase-1 volume fraction = 0.7325  Min(alpha.phase1) = 0  Max(alpha.phase1) = 1
MULES: Correcting alpha.phase1
MULES: Correcting alpha.phase1
MULES: Correcting alpha.phase1
Phase-1 volume fraction = 0.7325  Min(alpha.phase1) = 0  Max(alpha.phase1) = 1
iterator_distance 	5.305164717e-06
Beam: 0
Beam: 1
Beam: 2
Beam: 3
Beam: 4
Beam: 5
Beam: 6
Beam: 7
Beam: 8
Beam: 9
Beam: 10
Beam: 11
Beam: 12
Beam: 13
Beam: 14
Beam: 15
Beam: 16
Beam: 17
Beam: 18
Beam: 19
Beam: 20
Beam: 21
Beam: 22
Beam: 23
Beam: 24
Beam: 25
Beam: 26
Beam: 27
Beam: 28
Beam: 29
Beam: 30
Beam: 31
Beam: 32
Beam: 33
Beam: 34
Beam: 35
Beam: 36
Beam: 37
Beam: 38
Beam: 39
Beam: 40
Beam: 41
Beam: 42
Beam: 43
Beam: 44
Beam: 45
Beam: 46
Beam: 47
Beam: 48
Beam: 49
Beam: 50
Beam: 51
Beam: 52
Beam: 53
Beam: 54
Beam: 55
Beam: 56
Beam: 57
Beam: 58
Beam: 59
smoothSolver:  Solving for Uy, Initial residual = 4.235752745e-17, Final residual = 4.235752745e-17, No Iterations 0
smoothSolver:  Solving for Uz, Initial residual = 3.424508224e-16, Final residual = 3.424508224e-16, No Iterations 0
smoothSolver:  Solving for Temperature, Initial residual = 0.001405102317, Final residual = 2.051055566e-06, No Iterations 1000
Correcting epsilon1, mean residual = 0, max residual = 0
GAMG:  Solving for p_rgh, Initial residual = 7.138743495e-14, Final residual = 7.138743495e-14, No Iterations 0
time step continuity errors : sum local = 5.111376641e-12, global = -2.080035435e-13, cumulative = -1.174282077e-10
GAMG:  Solving for p_rgh, Initial residual = 7.139712271e-14, Final residual = 7.139712271e-14, No Iterations 0
time step continuity errors : sum local = 5.112074951e-12, global = -2.080732858e-13, cumulative = -1.17636281e-10
GAMGPCG:  Solving for p_rgh, Initial residual = 7.140217142e-14, Final residual = 7.140217142e-14, No Iterations 0
time step continuity errors : sum local = 5.112438302e-12, global = -2.081301221e-13, cumulative = -1.178444112e-10
ExecutionTime = 542.94 s  ClockTime = 544 s

Courant Number mean: 6.645625909e-11 max: 1.257695676e-09
Interface Courant Number mean: 0 max: 0
deltaT = 2e-05
Time = 0.0059

smoothSolver:  Solving for alpha.phase1, Initial residual = 3.668824696e-13, Final residual = 3.668824696e-13, No Iterations 0
Phase-1 volume fraction = 0.7325  Min(alpha.phase1) = 0  Max(alpha.phase1) = 1
MULES: Correcting alpha.phase1
MULES: Correcting alpha.phase1
MULES: Correcting alpha.phase1
Phase-1 volume fraction = 0.7325  Min(alpha.phase1) = 0  Max(alpha.phase1) = 1
smoothSolver:  Solving for alpha.phase1, Initial residual = 3.668824696e-13, Final residual = 3.668824696e-13, No Iterations 0
Phase-1 volume fraction = 0.7325  Min(alpha.phase1) = 0  Max(alpha.phase1) = 1
MULES: Correcting alpha.phase1
MULES: Correcting alpha.phase1
MULES: Correcting alpha.phase1
Phase-1 volume fraction = 0.7325  Min(alpha.phase1) = 0  Max(alpha.phase1) = 1
smoothSolver:  Solving for alpha.phase1, Initial residual = 3.668824696e-13, Final residual = 3.668824696e-13, No Iterations 0
Phase-1 volume fraction = 0.7325  Min(alpha.phase1) = 0  Max(alpha.phase1) = 1
MULES: Correcting alpha.phase1
MULES: Correcting alpha.phase1
MULES: Correcting alpha.phase1
Phase-1 volume fraction = 0.7325  Min(alpha.phase1) = 0  Max(alpha.phase1) = 1
iterator_distance 	5.305164717e-06
Beam: 0
Beam: 1
Beam: 2
Beam: 3
Beam: 4
Beam: 5
Beam: 6
Beam: 7
Beam: 8
Beam: 9
Beam: 10
Beam: 11
Beam: 12
Beam: 13
Beam: 14
Beam: 15
Beam: 16
Beam: 17
Beam: 18
Beam: 19
Beam: 20
Beam: 21
Beam: 22
Beam: 23
Beam: 24
Beam: 25
Beam: 26
Beam: 27
Beam: 28
Beam: 29
Beam: 30
Beam: 31
Beam: 32
Beam: 33
Beam: 34
Beam: 35
Beam: 36
Beam: 37
Beam: 38
Beam: 39
Beam: 40
Beam: 41
Beam: 42
Beam: 43
Beam: 44
Beam: 45
Beam: 46
Beam: 47
Beam: 48
Beam: 49
Beam: 50
Beam: 51
Beam: 52
Beam: 53
Beam: 54
Beam: 55
Beam: 56
Beam: 57
Beam: 58
Beam: 59
smoothSolver:  Solving for Uy, Initial residual = 4.218891593e-17, Final residual = 4.218891593e-17, No Iterations 0
smoothSolver:  Solving for Uz, Initial residual = 3.434140973e-16, Final residual = 3.434140973e-16, No Iterations 0
smoothSolver:  Solving for Temperature, Initial residual = 0.001401558645, Final residual = 2.062661554e-06, No Iterations 1000
Correcting epsilon1, mean residual = 0, max residual = 0
GAMG:  Solving for p_rgh, Initial residual = 7.144242525e-14, Final residual = 7.144242525e-14, No Iterations 0
time step continuity errors : sum local = 5.11389854e-12, global = -2.081579613e-13, cumulative = -1.180525691e-10
GAMG:  Solving for p_rgh, Initial residual = 7.145221671e-14, Final residual = 7.145221671e-14, No Iterations 0
time step continuity errors : sum local = 5.114598464e-12, global = -2.082267568e-13, cumulative = -1.182607959e-10
GAMGPCG:  Solving for p_rgh, Initial residual = 7.145720082e-14, Final residual = 7.145720082e-14, No Iterations 0
time step continuity errors : sum local = 5.114955984e-12, global = -2.08283092e-13, cumulative = -1.18469079e-10
ExecutionTime = 544.76 s  ClockTime = 546 s

Courant Number mean: 6.653164464e-11 max: 1.257712053e-09
Interface Courant Number mean: 0 max: 0
deltaT = 2e-05
Time = 0.00592

smoothSolver:  Solving for alpha.phase1, Initial residual = 3.668824696e-13, Final residual = 3.668824696e-13, No Iterations 0
Phase-1 volume fraction = 0.7325  Min(alpha.phase1) = 0  Max(alpha.phase1) = 1
MULES: Correcting alpha.phase1
MULES: Correcting alpha.phase1
MULES: Correcting alpha.phase1
Phase-1 volume fraction = 0.7325  Min(alpha.phase1) = 0  Max(alpha.phase1) = 1
smoothSolver:  Solving for alpha.phase1, Initial residual = 3.668824696e-13, Final residual = 3.668824696e-13, No Iterations 0
Phase-1 volume fraction = 0.7325  Min(alpha.phase1) = 0  Max(alpha.phase1) = 1
MULES: Correcting alpha.phase1
MULES: Correcting alpha.phase1
MULES: Correcting alpha.phase1
Phase-1 volume fraction = 0.7325  Min(alpha.phase1) = 0  Max(alpha.phase1) = 1
smoothSolver:  Solving for alpha.phase1, Initial residual = 3.668824696e-13, Final residual = 3.668824696e-13, No Iterations 0
Phase-1 volume fraction = 0.7325  Min(alpha.phase1) = 0  Max(alpha.phase1) = 1
MULES: Correcting alpha.phase1
MULES: Correcting alpha.phase1
MULES: Correcting alpha.phase1
Phase-1 volume fraction = 0.7325  Min(alpha.phase1) = 0  Max(alpha.phase1) = 1
iterator_distance 	5.305164717e-06
Beam: 0
Beam: 1
Beam: 2
Beam: 3
Beam: 4
Beam: 5
Beam: 6
Beam: 7
Beam: 8
Beam: 9
Beam: 10
Beam: 11
Beam: 12
Beam: 13
Beam: 14
Beam: 15
Beam: 16
Beam: 17
Beam: 18
Beam: 19
Beam: 20
Beam: 21
Beam: 22
Beam: 23
Beam: 24
Beam: 25
Beam: 26
Beam: 27
Beam: 28
Beam: 29
Beam: 30
Beam: 31
Beam: 32
Beam: 33
Beam: 34
Beam: 35
Beam: 36
Beam: 37
Beam: 38
Beam: 39
Beam: 40
Beam: 41
Beam: 42
Beam: 43
Beam: 44
Beam: 45
Beam: 46
Beam: 47
Beam: 48
Beam: 49
Beam: 50
Beam: 51
Beam: 52
Beam: 53
Beam: 54
Beam: 55
Beam: 56
Beam: 57
Beam: 58
Beam: 59
smoothSolver:  Solving for Uy, Initial residual = 4.205191315e-17, Final residual = 4.205191315e-17, No Iterations 0
smoothSolver:  Solving for Uz, Initial residual = 3.424161662e-16, Final residual = 3.424161662e-16, No Iterations 0
smoothSolver:  Solving for Temperature, Initial residual = 0.001397253175, Final residual = 2.057323174e-06, No Iterations 1000
Correcting epsilon1, mean residual = 0, max residual = 0
GAMG:  Solving for p_rgh, Initial residual = 7.144671694e-14, Final residual = 7.144671694e-14, No Iterations 0
time step continuity errors : sum local = 5.116314558e-12, global = -2.082482213e-13, cumulative = -1.186773272e-10
GAMG:  Solving for p_rgh, Initial residual = 7.145623507e-14, Final residual = 7.145623507e-14, No Iterations 0
time step continuity errors : sum local = 5.116996043e-12, global = -2.083160745e-13, cumulative = -1.188856433e-10
GAMGPCG:  Solving for p_rgh, Initial residual = 7.146108319e-14, Final residual = 7.146108319e-14, No Iterations 0
time step continuity errors : sum local = 5.117343162e-12, global = -2.083719108e-13, cumulative = -1.190940152e-10
ExecutionTime = 546.41 s  ClockTime = 548 s

Courant Number mean: 6.660712156e-11 max: 1.257728274e-09
Interface Courant Number mean: 0 max: 0
deltaT = 2e-05
Time = 0.00594

smoothSolver:  Solving for alpha.phase1, Initial residual = 3.668824696e-13, Final residual = 3.668824696e-13, No Iterations 0
Phase-1 volume fraction = 0.7325  Min(alpha.phase1) = 0  Max(alpha.phase1) = 1
MULES: Correcting alpha.phase1
MULES: Correcting alpha.phase1
MULES: Correcting alpha.phase1
Phase-1 volume fraction = 0.7325  Min(alpha.phase1) = 0  Max(alpha.phase1) = 1
smoothSolver:  Solving for alpha.phase1, Initial residual = 3.668824696e-13, Final residual = 3.668824696e-13, No Iterations 0
Phase-1 volume fraction = 0.7325  Min(alpha.phase1) = 0  Max(alpha.phase1) = 1
MULES: Correcting alpha.phase1
MULES: Correcting alpha.phase1
MULES: Correcting alpha.phase1
Phase-1 volume fraction = 0.7325  Min(alpha.phase1) = 0  Max(alpha.phase1) = 1
smoothSolver:  Solving for alpha.phase1, Initial residual = 3.668824696e-13, Final residual = 3.668824696e-13, No Iterations 0
Phase-1 volume fraction = 0.7325  Min(alpha.phase1) = 0  Max(alpha.phase1) = 1
MULES: Correcting alpha.phase1
MULES: Correcting alpha.phase1
MULES: Correcting alpha.phase1
Phase-1 volume fraction = 0.7325  Min(alpha.phase1) = 0  Max(alpha.phase1) = 1
iterator_distance 	5.305164717e-06
Beam: 0
Beam: 1
Beam: 2
Beam: 3
Beam: 4
Beam: 5
Beam: 6
Beam: 7
Beam: 8
Beam: 9
Beam: 10
Beam: 11
Beam: 12
Beam: 13
Beam: 14
Beam: 15
Beam: 16
Beam: 17
Beam: 18
Beam: 19
Beam: 20
Beam: 21
Beam: 22
Beam: 23
Beam: 24
Beam: 25
Beam: 26
Beam: 27
Beam: 28
Beam: 29
Beam: 30
Beam: 31
Beam: 32
Beam: 33
Beam: 34
Beam: 35
Beam: 36
Beam: 37
Beam: 38
Beam: 39
Beam: 40
Beam: 41
Beam: 42
Beam: 43
Beam: 44
Beam: 45
Beam: 46
Beam: 47
Beam: 48
Beam: 49
Beam: 50
Beam: 51
Beam: 52
Beam: 53
Beam: 54
Beam: 55
Beam: 56
Beam: 57
Beam: 58
Beam: 59
smoothSolver:  Solving for Uy, Initial residual = 4.20658135e-17, Final residual = 4.20658135e-17, No Iterations 0
smoothSolver:  Solving for Uz, Initial residual = 3.418329964e-16, Final residual = 3.418329964e-16, No Iterations 0
smoothSolver:  Solving for Temperature, Initial residual = 0.001393223566, Final residual = 2.053749199e-06, No Iterations 1000
Correcting epsilon1, mean residual = 0, max residual = 0
GAMG:  Solving for p_rgh, Initial residual = 7.148483184e-14, Final residual = 7.148483184e-14, No Iterations 0
time step continuity errors : sum local = 5.118535314e-12, global = -2.08355114e-13, cumulative = -1.193023703e-10
GAMG:  Solving for p_rgh, Initial residual = 7.149406625e-14, Final residual = 7.149406625e-14, No Iterations 0
time step continuity errors : sum local = 5.119196485e-12, global = -2.084220294e-13, cumulative = -1.195107923e-10
GAMGPCG:  Solving for p_rgh, Initial residual = 7.149892576e-14, Final residual = 7.149892576e-14, No Iterations 0
time step continuity errors : sum local = 5.119544419e-12, global = -2.084773689e-13, cumulative = -1.197192697e-10
ExecutionTime = 548.05 s  ClockTime = 550 s

Courant Number mean: 6.668198716e-11 max: 1.257744339e-09
Interface Courant Number mean: 0 max: 0
deltaT = 2e-05
Time = 0.00596

smoothSolver:  Solving for alpha.phase1, Initial residual = 3.668824696e-13, Final residual = 3.668824696e-13, No Iterations 0
Phase-1 volume fraction = 0.7325  Min(alpha.phase1) = 0  Max(alpha.phase1) = 1
MULES: Correcting alpha.phase1
MULES: Correcting alpha.phase1
MULES: Correcting alpha.phase1
Phase-1 volume fraction = 0.7325  Min(alpha.phase1) = 0  Max(alpha.phase1) = 1
smoothSolver:  Solving for alpha.phase1, Initial residual = 3.668824696e-13, Final residual = 3.668824696e-13, No Iterations 0
Phase-1 volume fraction = 0.7325  Min(alpha.phase1) = 0  Max(alpha.phase1) = 1
MULES: Correcting alpha.phase1
MULES: Correcting alpha.phase1
MULES: Correcting alpha.phase1
Phase-1 volume fraction = 0.7325  Min(alpha.phase1) = 0  Max(alpha.phase1) = 1
smoothSolver:  Solving for alpha.phase1, Initial residual = 3.668824696e-13, Final residual = 3.668824696e-13, No Iterations 0
Phase-1 volume fraction = 0.7325  Min(alpha.phase1) = 0  Max(alpha.phase1) = 1
MULES: Correcting alpha.phase1
MULES: Correcting alpha.phase1
MULES: Correcting alpha.phase1
Phase-1 volume fraction = 0.7325  Min(alpha.phase1) = 0  Max(alpha.phase1) = 1
iterator_distance 	5.305164717e-06
Beam: 0
Beam: 1
Beam: 2
Beam: 3
Beam: 4
Beam: 5
Beam: 6
Beam: 7
Beam: 8
Beam: 9
Beam: 10
Beam: 11
Beam: 12
Beam: 13
Beam: 14
Beam: 15
Beam: 16
Beam: 17
Beam: 18
Beam: 19
Beam: 20
Beam: 21
Beam: 22
Beam: 23
Beam: 24
Beam: 25
Beam: 26
Beam: 27
Beam: 28
Beam: 29
Beam: 30
Beam: 31
Beam: 32
Beam: 33
Beam: 34
Beam: 35
Beam: 36
Beam: 37
Beam: 38
Beam: 39
Beam: 40
Beam: 41
Beam: 42
Beam: 43
Beam: 44
Beam: 45
Beam: 46
Beam: 47
Beam: 48
Beam: 49
Beam: 50
Beam: 51
Beam: 52
Beam: 53
Beam: 54
Beam: 55
Beam: 56
Beam: 57
Beam: 58
Beam: 59
smoothSolver:  Solving for Uy, Initial residual = 4.204369263e-17, Final residual = 4.204369263e-17, No Iterations 0
smoothSolver:  Solving for Uz, Initial residual = 3.420244938e-16, Final residual = 3.420244938e-16, No Iterations 0
smoothSolver:  Solving for Temperature, Initial residual = 0.001389213054, Final residual = 2.052823626e-06, No Iterations 1000
Correcting epsilon1, mean residual = 0, max residual = 0
GAMG:  Solving for p_rgh, Initial residual = 7.15159548e-14, Final residual = 7.15159548e-14, No Iterations 0
time step continuity errors : sum local = 5.120700148e-12, global = -2.084755784e-13, cumulative = -1.199277453e-10
GAMG:  Solving for p_rgh, Initial residual = 7.152552683e-14, Final residual = 7.152552683e-14, No Iterations 0
time step continuity errors : sum local = 5.121385493e-12, global = -2.085415604e-13, cumulative = -1.201362868e-10
GAMGPCG:  Solving for p_rgh, Initial residual = 7.153044262e-14, Final residual = 7.153044262e-14, No Iterations 0
time step continuity errors : sum local = 5.121737457e-12, global = -2.085964055e-13, cumulative = -1.203448832e-10
ExecutionTime = 549.69 s  ClockTime = 551 s

Courant Number mean: 6.675674592e-11 max: 1.257760253e-09
Interface Courant Number mean: 0 max: 0
deltaT = 2e-05
Time = 0.00598

smoothSolver:  Solving for alpha.phase1, Initial residual = 3.668824696e-13, Final residual = 3.668824696e-13, No Iterations 0
Phase-1 volume fraction = 0.7325  Min(alpha.phase1) = 0  Max(alpha.phase1) = 1
MULES: Correcting alpha.phase1
MULES: Correcting alpha.phase1
MULES: Correcting alpha.phase1
Phase-1 volume fraction = 0.7325  Min(alpha.phase1) = 0  Max(alpha.phase1) = 1
smoothSolver:  Solving for alpha.phase1, Initial residual = 3.668824696e-13, Final residual = 3.668824696e-13, No Iterations 0
Phase-1 volume fraction = 0.7325  Min(alpha.phase1) = 0  Max(alpha.phase1) = 1
MULES: Correcting alpha.phase1
MULES: Correcting alpha.phase1
MULES: Correcting alpha.phase1
Phase-1 volume fraction = 0.7325  Min(alpha.phase1) = 0  Max(alpha.phase1) = 1
smoothSolver:  Solving for alpha.phase1, Initial residual = 3.668824696e-13, Final residual = 3.668824696e-13, No Iterations 0
Phase-1 volume fraction = 0.7325  Min(alpha.phase1) = 0  Max(alpha.phase1) = 1
MULES: Correcting alpha.phase1
MULES: Correcting alpha.phase1
MULES: Correcting alpha.phase1
Phase-1 volume fraction = 0.7325  Min(alpha.phase1) = 0  Max(alpha.phase1) = 1
iterator_distance 	5.305164717e-06
Beam: 0
Beam: 1
Beam: 2
Beam: 3
Beam: 4
Beam: 5
Beam: 6
Beam: 7
Beam: 8
Beam: 9
Beam: 10
Beam: 11
Beam: 12
Beam: 13
Beam: 14
Beam: 15
Beam: 16
Beam: 17
Beam: 18
Beam: 19
Beam: 20
Beam: 21
Beam: 22
Beam: 23
Beam: 24
Beam: 25
Beam: 26
Beam: 27
Beam: 28
Beam: 29
Beam: 30
Beam: 31
Beam: 32
Beam: 33
Beam: 34
Beam: 35
Beam: 36
Beam: 37
Beam: 38
Beam: 39
Beam: 40
Beam: 41
Beam: 42
Beam: 43
Beam: 44
Beam: 45
Beam: 46
Beam: 47
Beam: 48
Beam: 49
Beam: 50
Beam: 51
Beam: 52
Beam: 53
Beam: 54
Beam: 55
Beam: 56
Beam: 57
Beam: 58
Beam: 59
smoothSolver:  Solving for Uy, Initial residual = 4.193490281e-17, Final residual = 4.193490281e-17, No Iterations 0
smoothSolver:  Solving for Uz, Initial residual = 3.400559525e-16, Final residual = 3.400559525e-16, No Iterations 0
smoothSolver:  Solving for Temperature, Initial residual = 0.001385253036, Final residual = 2.045039183e-06, No Iterations 1000
Correcting epsilon1, mean residual = 0, max residual = 0
GAMG:  Solving for p_rgh, Initial residual = 7.155517689e-14, Final residual = 7.155517689e-14, No Iterations 0
time step continuity errors : sum local = 5.123356087e-12, global = -2.085870066e-13, cumulative = -1.205534702e-10
GAMG:  Solving for p_rgh, Initial residual = 7.156474053e-14, Final residual = 7.156474053e-14, No Iterations 0
time step continuity errors : sum local = 5.124039681e-12, global = -2.086520597e-13, cumulative = -1.207621223e-10
GAMGPCG:  Solving for p_rgh, Initial residual = 7.156972295e-14, Final residual = 7.156972295e-14, No Iterations 0
time step continuity errors : sum local = 5.12439683e-12, global = -2.087064125e-13, cumulative = -1.209708287e-10
ExecutionTime = 551.33 s  ClockTime = 553 s

Courant Number mean: 6.683167138e-11 max: 1.257776016e-09
Interface Courant Number mean: 0 max: 0
deltaT = 2e-05
Time = 0.006

smoothSolver:  Solving for alpha.phase1, Initial residual = 3.668824696e-13, Final residual = 3.668824696e-13, No Iterations 0
Phase-1 volume fraction = 0.7325  Min(alpha.phase1) = 0  Max(alpha.phase1) = 1
MULES: Correcting alpha.phase1
MULES: Correcting alpha.phase1
MULES: Correcting alpha.phase1
Phase-1 volume fraction = 0.7325  Min(alpha.phase1) = 0  Max(alpha.phase1) = 1
smoothSolver:  Solving for alpha.phase1, Initial residual = 3.668824696e-13, Final residual = 3.668824696e-13, No Iterations 0
Phase-1 volume fraction = 0.7325  Min(alpha.phase1) = 0  Max(alpha.phase1) = 1
MULES: Correcting alpha.phase1
MULES: Correcting alpha.phase1
MULES: Correcting alpha.phase1
Phase-1 volume fraction = 0.7325  Min(alpha.phase1) = 0  Max(alpha.phase1) = 1
smoothSolver:  Solving for alpha.phase1, Initial residual = 3.668824696e-13, Final residual = 3.668824696e-13, No Iterations 0
Phase-1 volume fraction = 0.7325  Min(alpha.phase1) = 0  Max(alpha.phase1) = 1
MULES: Correcting alpha.phase1
MULES: Correcting alpha.phase1
MULES: Correcting alpha.phase1
Phase-1 volume fraction = 0.7325  Min(alpha.phase1) = 0  Max(alpha.phase1) = 1
iterator_distance 	5.305164717e-06
Beam: 0
Beam: 1
Beam: 2
Beam: 3
Beam: 4
Beam: 5
Beam: 6
Beam: 7
Beam: 8
Beam: 9
Beam: 10
Beam: 11
Beam: 12
Beam: 13
Beam: 14
Beam: 15
Beam: 16
Beam: 17
Beam: 18
Beam: 19
Beam: 20
Beam: 21
Beam: 22
Beam: 23
Beam: 24
Beam: 25
Beam: 26
Beam: 27
Beam: 28
Beam: 29
Beam: 30
Beam: 31
Beam: 32
Beam: 33
Beam: 34
Beam: 35
Beam: 36
Beam: 37
Beam: 38
Beam: 39
Beam: 40
Beam: 41
Beam: 42
Beam: 43
Beam: 44
Beam: 45
Beam: 46
Beam: 47
Beam: 48
Beam: 49
Beam: 50
Beam: 51
Beam: 52
Beam: 53
Beam: 54
Beam: 55
Beam: 56
Beam: 57
Beam: 58
smoothSolver:  Solving for Uy, Initial residual = 4.173325492e-17, Final residual = 4.173325492e-17, No Iterations 0
smoothSolver:  Solving for Uz, Initial residual = 3.414030884e-16, Final residual = 3.414030884e-16, No Iterations 0
smoothSolver:  Solving for Temperature, Initial residual = 0.001381313558, Final residual = 2.039059706e-06, No Iterations 1000
Correcting epsilon1, mean residual = 0, max residual = 0
GAMG:  Solving for p_rgh, Initial residual = 7.158399905e-14, Final residual = 7.158399905e-14, No Iterations 0
time step continuity errors : sum local = 5.125560222e-12, global = -2.086941854e-13, cumulative = -1.211795229e-10
GAMG:  Solving for p_rgh, Initial residual = 7.159335966e-14, Final residual = 7.159335966e-14, No Iterations 0
time step continuity errors : sum local = 5.126232685e-12, global = -2.087583142e-13, cumulative = -1.213882812e-10
GAMGPCG:  Solving for p_rgh, Initial residual = 7.159815589e-14, Final residual = 7.159815589e-14, No Iterations 0
time step continuity errors : sum local = 5.126576716e-12, global = -2.088121768e-13, cumulative = -1.215970934e-10
ExecutionTime = 553.02 s  ClockTime = 555 s

End

Finalising parallel run
