/*---------------------------------------------------------------------------*\
  =========                 |
  \\      /  F ield         | OpenFOAM: The Open Source CFD Toolbox
   \\    /   O peration     | Website:  https://openfoam.org
    \\  /    A nd           | Version:  6
     \\/     M anipulation  |
\*---------------------------------------------------------------------------*/
Build  : 6-fa1285188035
Exec   : laserAMFoam -parallel
Date   : Mar 30 2022
Time   : 09:45:24
Host   : "e-uxxs4ly5294"
PID    : 1672
I/O    : uncollated
Case   : /home/mbcx7tf3/OpenFOAM/custom_solvers/laserAMFoam/tutorials/Test2
nProcs : 6
Slaves : 
5
(
"e-uxxs4ly5294.1674"
"e-uxxs4ly5294.1675"
"e-uxxs4ly5294.1676"
"e-uxxs4ly5294.1677"
"e-uxxs4ly5294.1678"
)

Pstream initialized with:
    floatTransfer      : 0
    nProcsSimpleSum    : 0
    commsType          : nonBlocking
    polling iterations : 0
sigFpe : Enabling floating point exception trapping (FOAM_SIGFPE).
fileModificationChecking : Monitoring run-time modified files using timeStampMaster (fileModificationSkew 10)
allowSystemOperations : Allowing user-supplied system call operations

// * * * * * * * * * * * * * * * * * * * * * * * * * * * * * * * * * * * * * //
Create time

Create mesh for time = 0


PIMPLE: No convergence criteria found


PIMPLE: Operating solver in PISO mode

Reading field p_rgh

Reading field U

Reading/calculating face flux field phi

Reading transportProperties

Selecting incompressible transport model Newtonian
Selecting incompressible transport model Newtonian
Reading field Temperature

Selecting turbulence model type laminar
Selecting laminar stress model Stokes

Reading g

Reading hRef
Calculating field g.h

No MRF models present

No finite volume options present
GAMGPCG:  Solving for pcorr, Initial residual = 0, Final residual = 0, No Iterations 0
time step continuity errors : sum local = 0, global = 0, cumulative = 0
Courant Number mean: 0 max: 0

Starting time loop

Courant Number mean: 0 max: 0
Interface Courant Number mean: 0 max: 0
deltaT = 2e-06
Time = 2e-06

smoothSolver:  Solving for alpha.phase1, Initial residual = 0, Final residual = 0, No Iterations 0
Phase-1 volume fraction = 0.6  Min(alpha.phase1) = 0  Max(alpha.phase1) = 1
MULES: Correcting alpha.phase1
MULES: Correcting alpha.phase1
MULES: Correcting alpha.phase1
Phase-1 volume fraction = 0.6  Min(alpha.phase1) = 0  Max(alpha.phase1) = 1
smoothSolver:  Solving for alpha.phase1, Initial residual = 0, Final residual = 0, No Iterations 0
Phase-1 volume fraction = 0.6  Min(alpha.phase1) = 0  Max(alpha.phase1) = 1
MULES: Correcting alpha.phase1
MULES: Correcting alpha.phase1
MULES: Correcting alpha.phase1
Phase-1 volume fraction = 0.6  Min(alpha.phase1) = 0  Max(alpha.phase1) = 1
smoothSolver:  Solving for alpha.phase1, Initial residual = 0, Final residual = 0, No Iterations 0
Phase-1 volume fraction = 0.6  Min(alpha.phase1) = 0  Max(alpha.phase1) = 1
MULES: Correcting alpha.phase1
MULES: Correcting alpha.phase1
MULES: Correcting alpha.phase1
Phase-1 volume fraction = 0.6  Min(alpha.phase1) = 0  Max(alpha.phase1) = 1
iterator_distance 	3.315727928e-06
Beam: 0
Beam: 1
Beam: 2
Beam: 3
Beam: 4
Beam: 5
Beam: 6
Beam: 7
Beam: 8
Beam: 9
Beam: 10
Beam: 11
Beam: 12
Beam: 13
Beam: 14
Beam: 15
Beam: 16
Beam: 17
Beam: 18
Beam: 19
Beam: 20
Beam: 21
Beam: 22
Beam: 23
Beam: 24
Beam: 25
Beam: 26
Beam: 27
Beam: 28
Beam: 29
Beam: 30
Beam: 31
Beam: 32
Beam: 33
Beam: 34
Beam: 35
Beam: 36
Beam: 37
Beam: 38
Beam: 39
Beam: 40
Beam: 41
Beam: 42
Beam: 43
Beam: 44
Beam: 45
Beam: 46
Beam: 47
Beam: 48
Beam: 49
Beam: 50
Beam: 51
Beam: 52
Beam: 53
Beam: 54
Beam: 55
Beam: 56
Beam: 57
Beam: 58
Beam: 59
Beam: 60
Beam: 61
Beam: 62
Beam: 63
Beam: 64
Beam: 65
Beam: 66
Beam: 67
Beam: 68
Beam: 69
Beam: 70
Beam: 71
smoothSolver:  Solving for Uy, Initial residual = 0.9852297142, Final residual = 6.335358259e-17, No Iterations 5
smoothSolver:  Solving for Uz, Initial residual = 0.0004422095578, Final residual = 2.84555409e-20, No Iterations 5
smoothSolver:  Solving for Temperature, Initial residual = 1, Final residual = 7.572895137e-10, No Iterations 17
Correcting epsilon1, mean residual = 0, max residual = 0
GAMG:  Solving for p_rgh, Initial residual = 6.409365414e-12, Final residual = 6.409365414e-12, No Iterations 0
time step continuity errors : sum local = 5.127492331e-29, global = 3.90605362e-42, cumulative = 3.90605362e-42
GAMG:  Solving for p_rgh, Initial residual = 6.40936626e-12, Final residual = 6.40936626e-12, No Iterations 0
time step continuity errors : sum local = 5.127493008e-29, global = 3.905574659e-42, cumulative = 7.811628278e-42
GAMGPCG:  Solving for p_rgh, Initial residual = 6.409366427e-12, Final residual = 6.409366427e-12, No Iterations 0
time step continuity errors : sum local = 5.127493141e-29, global = 3.905660183e-42, cumulative = 1.171728846e-41
ExecutionTime = 5.24 s  ClockTime = 5 s

Courant Number mean: 2.643529304e-29 max: 3.119971687e-27
Interface Courant Number mean: 0 max: 0
deltaT = 2e-06
Time = 4e-06

smoothSolver:  Solving for alpha.phase1, Initial residual = 8.893748181e-30, Final residual = 8.893748181e-30, No Iterations 0
Phase-1 volume fraction = 0.6  Min(alpha.phase1) = 0  Max(alpha.phase1) = 1
MULES: Correcting alpha.phase1
MULES: Correcting alpha.phase1
MULES: Correcting alpha.phase1
Phase-1 volume fraction = 0.6  Min(alpha.phase1) = 0  Max(alpha.phase1) = 1
smoothSolver:  Solving for alpha.phase1, Initial residual = 8.893748181e-30, Final residual = 8.893748181e-30, No Iterations 0
Phase-1 volume fraction = 0.6  Min(alpha.phase1) = 0  Max(alpha.phase1) = 1
MULES: Correcting alpha.phase1
MULES: Correcting alpha.phase1
MULES: Correcting alpha.phase1
Phase-1 volume fraction = 0.6  Min(alpha.phase1) = 0  Max(alpha.phase1) = 1
smoothSolver:  Solving for alpha.phase1, Initial residual = 8.893748181e-30, Final residual = 8.893748181e-30, No Iterations 0
Phase-1 volume fraction = 0.6  Min(alpha.phase1) = 0  Max(alpha.phase1) = 1
MULES: Correcting alpha.phase1
MULES: Correcting alpha.phase1
MULES: Correcting alpha.phase1
Phase-1 volume fraction = 0.6  Min(alpha.phase1) = 0  Max(alpha.phase1) = 1
iterator_distance 	3.315727928e-06
Beam: 0
Beam: 1
Beam: 2
Beam: 3
Beam: 4
Beam: 5
Beam: 6
Beam: 7
Beam: 8
Beam: 9
Beam: 10
Beam: 11
Beam: 12
Beam: 13
Beam: 14
Beam: 15
Beam: 16
Beam: 17
Beam: 18
Beam: 19
Beam: 20
Beam: 21
Beam: 22
Beam: 23
Beam: 24
Beam: 25
Beam: 26
Beam: 27
Beam: 28
Beam: 29
Beam: 30
Beam: 31
Beam: 32
Beam: 33
Beam: 34
Beam: 35
Beam: 36
Beam: 37
Beam: 38
Beam: 39
Beam: 40
Beam: 41
Beam: 42
Beam: 43
Beam: 44
Beam: 45
Beam: 46
Beam: 47
Beam: 48
Beam: 49
Beam: 50
Beam: 51
Beam: 52
Beam: 53
Beam: 54
Beam: 55
Beam: 56
Beam: 57
Beam: 58
Beam: 59
Beam: 60
Beam: 61
Beam: 62
Beam: 63
Beam: 64
Beam: 65
Beam: 66
Beam: 67
Beam: 68
Beam: 69
Beam: 70
Beam: 71
smoothSolver:  Solving for Uy, Initial residual = 0.9999905959, Final residual = 3.758868249e-10, No Iterations 10
smoothSolver:  Solving for Uz, Initial residual = 1, Final residual = 2.999430542e-13, No Iterations 5
smoothSolver:  Solving for Temperature, Initial residual = 0.1719105443, Final residual = 9.127495464e-10, No Iterations 15
Correcting epsilon1, mean residual = 0, max residual = 0
GAMG:  Solving for p_rgh, Initial residual = 0.9999998959, Final residual = 7.856670448e-10, No Iterations 20
time step continuity errors : sum local = 6.038312416e-20, global = 6.295311641e-23, cumulative = 6.295311641e-23
GAMG:  Solving for p_rgh, Initial residual = 0.0230726275, Final residual = 7.272460499e-10, No Iterations 16
time step continuity errors : sum local = 3.74591483e-19, global = 3.993389706e-22, cumulative = 4.62292087e-22
GAMGPCG:  Solving for p_rgh, Initial residual = 0.0002468946287, Final residual = 8.686059758e-10, No Iterations 2
time step continuity errors : sum local = 5.83470843e-19, global = -8.971643817e-23, cumulative = 3.725756489e-22
ExecutionTime = 10.39 s  ClockTime = 10 s

Courant Number mean: 7.170309273e-13 max: 2.064826222e-10
Interface Courant Number mean: 0 max: 0
deltaT = 2e-06
Time = 6e-06

smoothSolver:  Solving for alpha.phase1, Initial residual = 1.193986025e-18, Final residual = 1.193986025e-18, No Iterations 0
Phase-1 volume fraction = 0.6  Min(alpha.phase1) = 0  Max(alpha.phase1) = 1
MULES: Correcting alpha.phase1
MULES: Correcting alpha.phase1
MULES: Correcting alpha.phase1
Phase-1 volume fraction = 0.6  Min(alpha.phase1) = 0  Max(alpha.phase1) = 1
smoothSolver:  Solving for alpha.phase1, Initial residual = 1.193986025e-18, Final residual = 1.193986025e-18, No Iterations 0
Phase-1 volume fraction = 0.6  Min(alpha.phase1) = 0  Max(alpha.phase1) = 1
MULES: Correcting alpha.phase1
MULES: Correcting alpha.phase1
MULES: Correcting alpha.phase1
Phase-1 volume fraction = 0.6  Min(alpha.phase1) = 0  Max(alpha.phase1) = 1
smoothSolver:  Solving for alpha.phase1, Initial residual = 1.193986025e-18, Final residual = 1.193986025e-18, No Iterations 0
Phase-1 volume fraction = 0.6  Min(alpha.phase1) = 0  Max(alpha.phase1) = 1
MULES: Correcting alpha.phase1
MULES: Correcting alpha.phase1
MULES: Correcting alpha.phase1
Phase-1 volume fraction = 0.6  Min(alpha.phase1) = 0  Max(alpha.phase1) = 1
iterator_distance 	3.315727928e-06
Beam: 0
Beam: 1
Beam: 2
Beam: 3
Beam: 4
Beam: 5
Beam: 6
Beam: 7
Beam: 8
Beam: 9
Beam: 10
Beam: 11
Beam: 12
Beam: 13
Beam: 14
Beam: 15
Beam: 16
Beam: 17
Beam: 18
Beam: 19
Beam: 20
Beam: 21
Beam: 22
Beam: 23
Beam: 24
Beam: 25
Beam: 26
Beam: 27
Beam: 28
Beam: 29
Beam: 30
Beam: 31
Beam: 32
Beam: 33
Beam: 34
Beam: 35
Beam: 36
Beam: 37
Beam: 38
Beam: 39
Beam: 40
Beam: 41
Beam: 42
Beam: 43
Beam: 44
Beam: 45
Beam: 46
Beam: 47
Beam: 48
Beam: 49
Beam: 50
Beam: 51
Beam: 52
Beam: 53
Beam: 54
Beam: 55
Beam: 56
Beam: 57
Beam: 58
Beam: 59
Beam: 60
Beam: 61
Beam: 62
Beam: 63
Beam: 64
Beam: 65
Beam: 66
Beam: 67
Beam: 68
Beam: 69
Beam: 70
Beam: 71
smoothSolver:  Solving for Uy, Initial residual = 7.035952989e-07, Final residual = 1.268619596e-11, No Iterations 5
smoothSolver:  Solving for Uz, Initial residual = 0.001383823573, Final residual = 7.866430364e-16, No Iterations 5
smoothSolver:  Solving for Temperature, Initial residual = 0.09286962696, Final residual = 5.109999113e-10, No Iterations 15
Correcting epsilon1, mean residual = 0, max residual = 0
GAMG:  Solving for p_rgh, Initial residual = 0.1292220548, Final residual = 8.262760768e-10, No Iterations 19
time step continuity errors : sum local = 4.248064132e-19, global = -2.34094221e-22, cumulative = 1.384814279e-22
GAMG:  Solving for p_rgh, Initial residual = 0.009536559526, Final residual = 7.612724756e-10, No Iterations 16
time step continuity errors : sum local = 7.925316935e-19, global = 1.500196368e-21, cumulative = 1.638677796e-21
GAMGPCG:  Solving for p_rgh, Initial residual = 0.0001344964186, Final residual = 4.921426408e-10, No Iterations 2
time step continuity errors : sum local = 4.603847725e-19, global = -2.406089689e-23, cumulative = 1.614616899e-21
ExecutionTime = 15.55 s  ClockTime = 15 s

Courant Number mean: 2.810785482e-12 max: 7.306733379e-10
Interface Courant Number mean: 0 max: 0
deltaT = 2e-06
Time = 8e-06

smoothSolver:  Solving for alpha.phase1, Initial residual = 2.116844074e-18, Final residual = 2.116844074e-18, No Iterations 0
Phase-1 volume fraction = 0.6  Min(alpha.phase1) = 0  Max(alpha.phase1) = 1
MULES: Correcting alpha.phase1
MULES: Correcting alpha.phase1
MULES: Correcting alpha.phase1
Phase-1 volume fraction = 0.6  Min(alpha.phase1) = 0  Max(alpha.phase1) = 1
smoothSolver:  Solving for alpha.phase1, Initial residual = 2.116844074e-18, Final residual = 2.116844074e-18, No Iterations 0
Phase-1 volume fraction = 0.6  Min(alpha.phase1) = 0  Max(alpha.phase1) = 1
MULES: Correcting alpha.phase1
MULES: Correcting alpha.phase1
MULES: Correcting alpha.phase1
Phase-1 volume fraction = 0.6  Min(alpha.phase1) = 0  Max(alpha.phase1) = 1
smoothSolver:  Solving for alpha.phase1, Initial residual = 2.116844074e-18, Final residual = 2.116844074e-18, No Iterations 0
Phase-1 volume fraction = 0.6  Min(alpha.phase1) = 0  Max(alpha.phase1) = 1
MULES: Correcting alpha.phase1
MULES: Correcting alpha.phase1
MULES: Correcting alpha.phase1
Phase-1 volume fraction = 0.6  Min(alpha.phase1) = 0  Max(alpha.phase1) = 1
iterator_distance 	3.315727928e-06
Beam: 0
Beam: 1
Beam: 2
Beam: 3
Beam: 4
Beam: 5
Beam: 6
Beam: 7
Beam: 8
Beam: 9
Beam: 10
Beam: 11
Beam: 12
Beam: 13
Beam: 14
Beam: 15
Beam: 16
Beam: 17
Beam: 18
Beam: 19
Beam: 20
Beam: 21
Beam: 22
Beam: 23
Beam: 24
Beam: 25
Beam: 26
Beam: 27
Beam: 28
Beam: 29
Beam: 30
Beam: 31
Beam: 32
Beam: 33
Beam: 34
Beam: 35
Beam: 36
Beam: 37
Beam: 38
Beam: 39
Beam: 40
Beam: 41
Beam: 42
Beam: 43
Beam: 44
Beam: 45
Beam: 46
Beam: 47
Beam: 48
Beam: 49
Beam: 50
Beam: 51
Beam: 52
Beam: 53
Beam: 54
Beam: 55
Beam: 56
Beam: 57
Beam: 58
Beam: 59
Beam: 60
Beam: 61
Beam: 62
Beam: 63
Beam: 64
Beam: 65
Beam: 66
Beam: 67
Beam: 68
Beam: 69
Beam: 70
Beam: 71
smoothSolver:  Solving for Uy, Initial residual = 6.090163288e-08, Final residual = 1.209841683e-12, No Iterations 5
smoothSolver:  Solving for Uz, Initial residual = 0.0002885929498, Final residual = 2.362300134e-16, No Iterations 5
smoothSolver:  Solving for Temperature, Initial residual = 0.06328361005, Final residual = 9.412161057e-10, No Iterations 14
Correcting epsilon1, mean residual = 0, max residual = 0
GAMG:  Solving for p_rgh, Initial residual = 0.04826948377, Final residual = 5.67558628e-10, No Iterations 19
time step continuity errors : sum local = 5.810691491e-19, global = -8.074535501e-22, cumulative = 8.071633494e-22
GAMG:  Solving for p_rgh, Initial residual = 0.0057867128, Final residual = 7.665993043e-10, No Iterations 16
time step continuity errors : sum local = 1.078368384e-18, global = 2.581936103e-21, cumulative = 3.389099452e-21
GAMGPCG:  Solving for p_rgh, Initial residual = 9.128617749e-05, Final residual = 2.129934093e-10, No Iterations 2
time step continuity errors : sum local = 2.437726293e-19, global = 4.36789784e-23, cumulative = 3.432778431e-21
ExecutionTime = 20.7 s  ClockTime = 20 s

Courant Number mean: 6.75288796e-12 max: 1.611464346e-09
Interface Courant Number mean: 0 max: 0
deltaT = 2e-06
Time = 1e-05

smoothSolver:  Solving for alpha.phase1, Initial residual = 2.817022664e-18, Final residual = 2.817022664e-18, No Iterations 0
Phase-1 volume fraction = 0.6  Min(alpha.phase1) = 0  Max(alpha.phase1) = 1
MULES: Correcting alpha.phase1
MULES: Correcting alpha.phase1
MULES: Correcting alpha.phase1
Phase-1 volume fraction = 0.6  Min(alpha.phase1) = 0  Max(alpha.phase1) = 1
smoothSolver:  Solving for alpha.phase1, Initial residual = 2.817022664e-18, Final residual = 2.817022664e-18, No Iterations 0
Phase-1 volume fraction = 0.6  Min(alpha.phase1) = 0  Max(alpha.phase1) = 1
MULES: Correcting alpha.phase1
MULES: Correcting alpha.phase1
MULES: Correcting alpha.phase1
Phase-1 volume fraction = 0.6  Min(alpha.phase1) = 0  Max(alpha.phase1) = 1
smoothSolver:  Solving for alpha.phase1, Initial residual = 2.817022664e-18, Final residual = 2.817022664e-18, No Iterations 0
Phase-1 volume fraction = 0.6  Min(alpha.phase1) = 0  Max(alpha.phase1) = 1
MULES: Correcting alpha.phase1
MULES: Correcting alpha.phase1
MULES: Correcting alpha.phase1
Phase-1 volume fraction = 0.6  Min(alpha.phase1) = 0  Max(alpha.phase1) = 1
iterator_distance 	3.315727928e-06
Beam: 0
Beam: 1
Beam: 2
Beam: 3
Beam: 4
Beam: 5
Beam: 6
Beam: 7
Beam: 8
Beam: 9
Beam: 10
Beam: 11
Beam: 12
Beam: 13
Beam: 14
Beam: 15
Beam: 16
Beam: 17
Beam: 18
Beam: 19
Beam: 20
Beam: 21
Beam: 22
Beam: 23
Beam: 24
Beam: 25
Beam: 26
Beam: 27
Beam: 28
Beam: 29
Beam: 30
Beam: 31
Beam: 32
Beam: 33
Beam: 34
Beam: 35
Beam: 36
Beam: 37
Beam: 38
Beam: 39
Beam: 40
Beam: 41
Beam: 42
Beam: 43
Beam: 44
Beam: 45
Beam: 46
Beam: 47
Beam: 48
Beam: 49
Beam: 50
Beam: 51
Beam: 52
Beam: 53
Beam: 54
Beam: 55
Beam: 56
Beam: 57
Beam: 58
Beam: 59
Beam: 60
Beam: 61
Beam: 62
Beam: 63
Beam: 64
Beam: 65
Beam: 66
Beam: 67
Beam: 68
Beam: 69
Beam: 70
Beam: 71
smoothSolver:  Solving for Uy, Initial residual = 1.955838504e-08, Final residual = 4.117717297e-13, No Iterations 5
smoothSolver:  Solving for Uz, Initial residual = 0.0001016314107, Final residual = 1.07439355e-16, No Iterations 5
smoothSolver:  Solving for Temperature, Initial residual = 0.04790439486, Final residual = 7.186832975e-10, No Iterations 14
Correcting epsilon1, mean residual = 0, max residual = 0
GAMG:  Solving for p_rgh, Initial residual = 0.02720269131, Final residual = 5.59863583e-10, No Iterations 19
time step continuity errors : sum local = 7.500350036e-19, global = -1.132724933e-21, cumulative = 2.300053498e-21
GAMG:  Solving for p_rgh, Initial residual = 0.004425604587, Final residual = 9.327573906e-10, No Iterations 16
time step continuity errors : sum local = 1.418497733e-18, global = 1.908036627e-21, cumulative = 4.208090125e-21
GAMGPCG:  Solving for p_rgh, Initial residual = 4.667425427e-05, Final residual = 1.094503876e-10, No Iterations 2
time step continuity errors : sum local = 1.975487817e-19, global = 4.616436275e-23, cumulative = 4.254254487e-21
ExecutionTime = 25.87 s  ClockTime = 25 s

Courant Number mean: 1.292182094e-11 max: 2.85704895e-09
Interface Courant Number mean: 0 max: 0
deltaT = 2e-06
Time = 1.2e-05

smoothSolver:  Solving for alpha.phase1, Initial residual = 3.410828965e-18, Final residual = 3.410828965e-18, No Iterations 0
Phase-1 volume fraction = 0.6  Min(alpha.phase1) = 0  Max(alpha.phase1) = 1
MULES: Correcting alpha.phase1
MULES: Correcting alpha.phase1
MULES: Correcting alpha.phase1
Phase-1 volume fraction = 0.6  Min(alpha.phase1) = 0  Max(alpha.phase1) = 1
smoothSolver:  Solving for alpha.phase1, Initial residual = 3.410828965e-18, Final residual = 3.410828965e-18, No Iterations 0
Phase-1 volume fraction = 0.6  Min(alpha.phase1) = 0  Max(alpha.phase1) = 1
MULES: Correcting alpha.phase1
MULES: Correcting alpha.phase1
MULES: Correcting alpha.phase1
Phase-1 volume fraction = 0.6  Min(alpha.phase1) = 0  Max(alpha.phase1) = 1
smoothSolver:  Solving for alpha.phase1, Initial residual = 3.410828965e-18, Final residual = 3.410828965e-18, No Iterations 0
Phase-1 volume fraction = 0.6  Min(alpha.phase1) = 0  Max(alpha.phase1) = 1
MULES: Correcting alpha.phase1
MULES: Correcting alpha.phase1
MULES: Correcting alpha.phase1
Phase-1 volume fraction = 0.6  Min(alpha.phase1) = 0  Max(alpha.phase1) = 1
iterator_distance 	3.315727928e-06
Beam: 0
Beam: 1
Beam: 2
Beam: 3
Beam: 4
Beam: 5
Beam: 6
Beam: 7
Beam: 8
Beam: 9
Beam: 10
Beam: 11
Beam: 12
Beam: 13
Beam: 14
Beam: 15
Beam: 16
Beam: 17
Beam: 18
Beam: 19
Beam: 20
Beam: 21
Beam: 22
Beam: 23
Beam: 24
Beam: 25
Beam: 26
Beam: 27
Beam: 28
Beam: 29
Beam: 30
Beam: 31
Beam: 32
Beam: 33
Beam: 34
Beam: 35
Beam: 36
Beam: 37
Beam: 38
Beam: 39
Beam: 40
Beam: 41
Beam: 42
Beam: 43
Beam: 44
Beam: 45
Beam: 46
Beam: 47
Beam: 48
Beam: 49
Beam: 50
Beam: 51
Beam: 52
Beam: 53
Beam: 54
Beam: 55
Beam: 56
Beam: 57
Beam: 58
Beam: 59
Beam: 60
Beam: 61
Beam: 62
Beam: 63
Beam: 64
Beam: 65
Beam: 66
Beam: 67
Beam: 68
Beam: 69
Beam: 70
Beam: 71
smoothSolver:  Solving for Uy, Initial residual = 1.041892028e-08, Final residual = 2.278079763e-13, No Iterations 5
smoothSolver:  Solving for Uz, Initial residual = 4.619126496e-05, Final residual = 5.955582256e-17, No Iterations 5
smoothSolver:  Solving for Temperature, Initial residual = 0.03850819555, Final residual = 5.828132378e-10, No Iterations 14
Correcting epsilon1, mean residual = 0, max residual = 0
GAMG:  Solving for p_rgh, Initial residual = 0.01821499639, Final residual = 5.559126728e-10, No Iterations 19
time step continuity errors : sum local = 8.754866996e-19, global = -1.328466069e-21, cumulative = 2.925788418e-21
GAMG:  Solving for p_rgh, Initial residual = 0.003082425856, Final residual = 8.667225747e-10, No Iterations 16
time step continuity errors : sum local = 1.560035415e-18, global = 2.280300612e-21, cumulative = 5.20608903e-21
GAMGPCG:  Solving for p_rgh, Initial residual = 3.115842476e-05, Final residual = 9.270417291e-11, No Iterations 2
time step continuity errors : sum local = 1.985418267e-19, global = 9.369404858e-24, cumulative = 5.215458435e-21
ExecutionTime = 31.04 s  ClockTime = 31 s

Courant Number mean: 2.164337642e-11 max: 4.461026003e-09
Interface Courant Number mean: 0 max: 0
deltaT = 2e-06
Time = 1.4e-05

smoothSolver:  Solving for alpha.phase1, Initial residual = 3.930528426e-18, Final residual = 3.930528426e-18, No Iterations 0
Phase-1 volume fraction = 0.6  Min(alpha.phase1) = 0  Max(alpha.phase1) = 1
MULES: Correcting alpha.phase1
MULES: Correcting alpha.phase1
MULES: Correcting alpha.phase1
Phase-1 volume fraction = 0.6  Min(alpha.phase1) = 0  Max(alpha.phase1) = 1
smoothSolver:  Solving for alpha.phase1, Initial residual = 3.930528426e-18, Final residual = 3.930528426e-18, No Iterations 0
Phase-1 volume fraction = 0.6  Min(alpha.phase1) = 0  Max(alpha.phase1) = 1
MULES: Correcting alpha.phase1
MULES: Correcting alpha.phase1
MULES: Correcting alpha.phase1
Phase-1 volume fraction = 0.6  Min(alpha.phase1) = 0  Max(alpha.phase1) = 1
smoothSolver:  Solving for alpha.phase1, Initial residual = 3.930528426e-18, Final residual = 3.930528426e-18, No Iterations 0
Phase-1 volume fraction = 0.6  Min(alpha.phase1) = 0  Max(alpha.phase1) = 1
MULES: Correcting alpha.phase1
MULES: Correcting alpha.phase1
MULES: Correcting alpha.phase1
Phase-1 volume fraction = 0.6  Min(alpha.phase1) = 0  Max(alpha.phase1) = 1
iterator_distance 	3.315727928e-06
Beam: 0
Beam: 1
Beam: 2
Beam: 3
Beam: 4
Beam: 5
Beam: 6
Beam: 7
Beam: 8
Beam: 9
Beam: 10
Beam: 11
Beam: 12
Beam: 13
Beam: 14
Beam: 15
Beam: 16
Beam: 17
Beam: 18
Beam: 19
Beam: 20
Beam: 21
Beam: 22
Beam: 23
Beam: 24
Beam: 25
Beam: 26
Beam: 27
Beam: 28
Beam: 29
Beam: 30
Beam: 31
Beam: 32
Beam: 33
Beam: 34
Beam: 35
Beam: 36
Beam: 37
Beam: 38
Beam: 39
Beam: 40
Beam: 41
Beam: 42
Beam: 43
Beam: 44
Beam: 45
Beam: 46
Beam: 47
Beam: 48
Beam: 49
Beam: 50
Beam: 51
Beam: 52
Beam: 53
Beam: 54
Beam: 55
Beam: 56
Beam: 57
Beam: 58
Beam: 59
Beam: 60
Beam: 61
Beam: 62
Beam: 63
Beam: 64
Beam: 65
Beam: 66
Beam: 67
Beam: 68
Beam: 69
Beam: 70
Beam: 71
smoothSolver:  Solving for Uy, Initial residual = 7.115848474e-09, Final residual = 1.596726001e-13, No Iterations 5
smoothSolver:  Solving for Uz, Initial residual = 2.449746557e-05, Final residual = 3.722274078e-17, No Iterations 5
smoothSolver:  Solving for Temperature, Initial residual = 0.03217933461, Final residual = 4.912536813e-10, No Iterations 14
Correcting epsilon1, mean residual = 0, max residual = 0
GAMG:  Solving for p_rgh, Initial residual = 0.01033689843, Final residual = 8.94652092e-10, No Iterations 18
time step continuity errors : sum local = 2.050165707e-18, global = -3.03771532e-21, cumulative = 2.177743115e-21
GAMG:  Solving for p_rgh, Initial residual = 0.002209826343, Final residual = 8.616038424e-10, No Iterations 16
time step continuity errors : sum local = 1.80024558e-18, global = 1.934638861e-21, cumulative = 4.112381976e-21
GAMGPCG:  Solving for p_rgh, Initial residual = 2.667985574e-05, Final residual = 1.233576836e-10, No Iterations 2
time step continuity errors : sum local = 2.45199296e-19, global = -8.522220196e-24, cumulative = 4.103859756e-21
ExecutionTime = 36.17 s  ClockTime = 36 s

Courant Number mean: 3.317046214e-11 max: 6.409763923e-09
Interface Courant Number mean: 0 max: 0
deltaT = 2e-06
Time = 1.6e-05

smoothSolver:  Solving for alpha.phase1, Initial residual = 4.327422883e-18, Final residual = 4.327422883e-18, No Iterations 0
Phase-1 volume fraction = 0.6  Min(alpha.phase1) = 0  Max(alpha.phase1) = 1
MULES: Correcting alpha.phase1
MULES: Correcting alpha.phase1
MULES: Correcting alpha.phase1
Phase-1 volume fraction = 0.6  Min(alpha.phase1) = 0  Max(alpha.phase1) = 1
smoothSolver:  Solving for alpha.phase1, Initial residual = 4.327422883e-18, Final residual = 4.327422883e-18, No Iterations 0
Phase-1 volume fraction = 0.6  Min(alpha.phase1) = 0  Max(alpha.phase1) = 1
MULES: Correcting alpha.phase1
MULES: Correcting alpha.phase1
MULES: Correcting alpha.phase1
Phase-1 volume fraction = 0.6  Min(alpha.phase1) = 0  Max(alpha.phase1) = 1
smoothSolver:  Solving for alpha.phase1, Initial residual = 4.327422883e-18, Final residual = 4.327422883e-18, No Iterations 0
Phase-1 volume fraction = 0.6  Min(alpha.phase1) = 0  Max(alpha.phase1) = 1
MULES: Correcting alpha.phase1
MULES: Correcting alpha.phase1
MULES: Correcting alpha.phase1
Phase-1 volume fraction = 0.6  Min(alpha.phase1) = 0  Max(alpha.phase1) = 1
iterator_distance 	3.315727928e-06
Beam: 0
Beam: 1
Beam: 2
Beam: 3
Beam: 4
Beam: 5
Beam: 6
Beam: 7
Beam: 8
Beam: 9
Beam: 10
Beam: 11
Beam: 12
Beam: 13
Beam: 14
Beam: 15
Beam: 16
Beam: 17
Beam: 18
Beam: 19
Beam: 20
Beam: 21
Beam: 22
Beam: 23
Beam: 24
Beam: 25
Beam: 26
Beam: 27
Beam: 28
Beam: 29
Beam: 30
Beam: 31
Beam: 32
Beam: 33
Beam: 34
Beam: 35
Beam: 36
Beam: 37
Beam: 38
Beam: 39
Beam: 40
Beam: 41
Beam: 42
Beam: 43
Beam: 44
Beam: 45
Beam: 46
Beam: 47
Beam: 48
Beam: 49
Beam: 50
Beam: 51
Beam: 52
Beam: 53
Beam: 54
Beam: 55
Beam: 56
Beam: 57
Beam: 58
Beam: 59
Beam: 60
Beam: 61
Beam: 62
Beam: 63
Beam: 64
Beam: 65
Beam: 66
Beam: 67
Beam: 68
Beam: 69
Beam: 70
Beam: 71
smoothSolver:  Solving for Uy, Initial residual = 5.620803476e-09, Final residual = 1.284928715e-13, No Iterations 5
smoothSolver:  Solving for Uz, Initial residual = 1.441591134e-05, Final residual = 2.524273836e-17, No Iterations 5
smoothSolver:  Solving for Temperature, Initial residual = 0.02763145971, Final residual = 4.253767532e-10, No Iterations 14
Correcting epsilon1, mean residual = 0, max residual = 0
GAMG:  Solving for p_rgh, Initial residual = 0.01040192102, Final residual = 5.354991258e-10, No Iterations 19
time step continuity errors : sum local = 1.020226017e-18, global = -1.279195553e-21, cumulative = 2.824664203e-21
GAMG:  Solving for p_rgh, Initial residual = 0.001844075983, Final residual = 7.421484217e-10, No Iterations 16
time step continuity errors : sum local = 1.609000233e-18, global = 4.007196121e-21, cumulative = 6.831860323e-21
GAMGPCG:  Solving for p_rgh, Initial residual = 1.92819514e-05, Final residual = 1.394025423e-10, No Iterations 2
time step continuity errors : sum local = 3.137366249e-19, global = 1.973109747e-23, cumulative = 6.851591421e-21
ExecutionTime = 41.31 s  ClockTime = 41 s

Courant Number mean: 4.770362204e-11 max: 8.686322538e-09
Interface Courant Number mean: 0 max: 0
deltaT = 2e-06
Time = 1.8e-05

smoothSolver:  Solving for alpha.phase1, Initial residual = 4.73446489e-18, Final residual = 4.73446489e-18, No Iterations 0
Phase-1 volume fraction = 0.6  Min(alpha.phase1) = 0  Max(alpha.phase1) = 1
MULES: Correcting alpha.phase1
MULES: Correcting alpha.phase1
MULES: Correcting alpha.phase1
Phase-1 volume fraction = 0.6  Min(alpha.phase1) = 0  Max(alpha.phase1) = 1
smoothSolver:  Solving for alpha.phase1, Initial residual = 4.73446489e-18, Final residual = 4.73446489e-18, No Iterations 0
Phase-1 volume fraction = 0.6  Min(alpha.phase1) = 0  Max(alpha.phase1) = 1
MULES: Correcting alpha.phase1
MULES: Correcting alpha.phase1
MULES: Correcting alpha.phase1
Phase-1 volume fraction = 0.6  Min(alpha.phase1) = 0  Max(alpha.phase1) = 1
smoothSolver:  Solving for alpha.phase1, Initial residual = 4.73446489e-18, Final residual = 4.73446489e-18, No Iterations 0
Phase-1 volume fraction = 0.6  Min(alpha.phase1) = 0  Max(alpha.phase1) = 1
MULES: Correcting alpha.phase1
MULES: Correcting alpha.phase1
MULES: Correcting alpha.phase1
Phase-1 volume fraction = 0.6  Min(alpha.phase1) = 0  Max(alpha.phase1) = 1
iterator_distance 	3.315727928e-06
Beam: 0
Beam: 1
Beam: 2
Beam: 3
Beam: 4
Beam: 5
Beam: 6
Beam: 7
Beam: 8
Beam: 9
Beam: 10
Beam: 11
Beam: 12
Beam: 13
Beam: 14
Beam: 15
Beam: 16
Beam: 17
Beam: 18
Beam: 19
Beam: 20
Beam: 21
Beam: 22
Beam: 23
Beam: 24
Beam: 25
Beam: 26
Beam: 27
Beam: 28
Beam: 29
Beam: 30
Beam: 31
Beam: 32
Beam: 33
Beam: 34
Beam: 35
Beam: 36
Beam: 37
Beam: 38
Beam: 39
Beam: 40
Beam: 41
Beam: 42
Beam: 43
Beam: 44
Beam: 45
Beam: 46
Beam: 47
Beam: 48
Beam: 49
Beam: 50
Beam: 51
Beam: 52
Beam: 53
Beam: 54
Beam: 55
Beam: 56
Beam: 57
Beam: 58
Beam: 59
Beam: 60
Beam: 61
Beam: 62
Beam: 63
Beam: 64
Beam: 65
Beam: 66
Beam: 67
Beam: 68
Beam: 69
Beam: 70
Beam: 71
smoothSolver:  Solving for Uy, Initial residual = 4.87562525e-09, Final residual = 1.130008773e-13, No Iterations 5
smoothSolver:  Solving for Uz, Initial residual = 9.142745446e-06, Final residual = 1.816450204e-17, No Iterations 5
smoothSolver:  Solving for Temperature, Initial residual = 0.02420674141, Final residual = 3.756788517e-10, No Iterations 14
Correcting epsilon1, mean residual = 0, max residual = 0
GAMG:  Solving for p_rgh, Initial residual = 0.00722397706, Final residual = 8.952014029e-10, No Iterations 18
time step continuity errors : sum local = 2.134539147e-18, global = -3.457486155e-21, cumulative = 3.394105266e-21
GAMG:  Solving for p_rgh, Initial residual = 0.001317915107, Final residual = 7.367812129e-10, No Iterations 16
time step continuity errors : sum local = 1.960760741e-18, global = 2.208995803e-21, cumulative = 5.603101069e-21
GAMGPCG:  Solving for p_rgh, Initial residual = 1.544537047e-05, Final residual = 1.496728917e-10, No Iterations 2
time step continuity errors : sum local = 3.596188089e-19, global = 7.527055668e-23, cumulative = 5.678371625e-21
ExecutionTime = 46.45 s  ClockTime = 46 s

Courant Number mean: 6.542622827e-11 max: 1.127253865e-08
Interface Courant Number mean: 0 max: 0
deltaT = 2e-06
Time = 2e-05

smoothSolver:  Solving for alpha.phase1, Initial residual = 5.048011109e-18, Final residual = 5.048011109e-18, No Iterations 0
Phase-1 volume fraction = 0.6  Min(alpha.phase1) = 0  Max(alpha.phase1) = 1
MULES: Correcting alpha.phase1
MULES: Correcting alpha.phase1
MULES: Correcting alpha.phase1
Phase-1 volume fraction = 0.6  Min(alpha.phase1) = 0  Max(alpha.phase1) = 1
smoothSolver:  Solving for alpha.phase1, Initial residual = 5.048011109e-18, Final residual = 5.048011109e-18, No Iterations 0
Phase-1 volume fraction = 0.6  Min(alpha.phase1) = 0  Max(alpha.phase1) = 1
MULES: Correcting alpha.phase1
MULES: Correcting alpha.phase1
MULES: Correcting alpha.phase1
Phase-1 volume fraction = 0.6  Min(alpha.phase1) = 0  Max(alpha.phase1) = 1
smoothSolver:  Solving for alpha.phase1, Initial residual = 5.048011109e-18, Final residual = 5.048011109e-18, No Iterations 0
Phase-1 volume fraction = 0.6  Min(alpha.phase1) = 0  Max(alpha.phase1) = 1
MULES: Correcting alpha.phase1
MULES: Correcting alpha.phase1
MULES: Correcting alpha.phase1
Phase-1 volume fraction = 0.6  Min(alpha.phase1) = 0  Max(alpha.phase1) = 1
iterator_distance 	3.315727928e-06
Beam: 0
Beam: 1
Beam: 2
Beam: 3
Beam: 4
Beam: 5
Beam: 6
Beam: 7
Beam: 8
Beam: 9
Beam: 10
Beam: 11
Beam: 12
Beam: 13
Beam: 14
Beam: 15
Beam: 16
Beam: 17
Beam: 18
Beam: 19
Beam: 20
Beam: 21
Beam: 22
Beam: 23
Beam: 24
Beam: 25
Beam: 26
Beam: 27
Beam: 28
Beam: 29
Beam: 30
Beam: 31
Beam: 32
Beam: 33
Beam: 34
Beam: 35
Beam: 36
Beam: 37
Beam: 38
Beam: 39
Beam: 40
Beam: 41
Beam: 42
Beam: 43
Beam: 44
Beam: 45
Beam: 46
Beam: 47
Beam: 48
Beam: 49
Beam: 50
Beam: 51
Beam: 52
Beam: 53
Beam: 54
Beam: 55
Beam: 56
Beam: 57
Beam: 58
Beam: 59
Beam: 60
Beam: 61
Beam: 62
Beam: 63
Beam: 64
Beam: 65
Beam: 66
Beam: 67
Beam: 68
Beam: 69
Beam: 70
Beam: 71
smoothSolver:  Solving for Uy, Initial residual = 4.508600709e-09, Final residual = 1.055835666e-13, No Iterations 5
smoothSolver:  Solving for Uz, Initial residual = 6.135171623e-06, Final residual = 1.367586467e-17, No Iterations 5
smoothSolver:  Solving for Temperature, Initial residual = 0.02153580045, Final residual = 8.986790344e-10, No Iterations 13
Correcting epsilon1, mean residual = 0, max residual = 0
GAMG:  Solving for p_rgh, Initial residual = 0.006718689421, Final residual = 8.878314976e-10, No Iterations 18
time step continuity errors : sum local = 2.006335681e-18, global = -4.188108396e-21, cumulative = 1.490263229e-21
GAMG:  Solving for p_rgh, Initial residual = 0.00169547133, Final residual = 4.913573436e-10, No Iterations 17
time step continuity errors : sum local = 8.986587751e-19, global = 1.891296796e-21, cumulative = 3.381560025e-21
GAMGPCG:  Solving for p_rgh, Initial residual = 1.260024396e-05, Final residual = 1.480606182e-10, No Iterations 2
time step continuity errors : sum local = 3.738170769e-19, global = 8.178940008e-23, cumulative = 3.463349425e-21
ExecutionTime = 51.57 s  ClockTime = 51 s

Courant Number mean: 8.649766231e-11 max: 1.415014902e-08
Interface Courant Number mean: 0 max: 0
deltaT = 2e-06
Time = 2.2e-05

smoothSolver:  Solving for alpha.phase1, Initial residual = 5.454024185e-18, Final residual = 5.454024185e-18, No Iterations 0
Phase-1 volume fraction = 0.6  Min(alpha.phase1) = 0  Max(alpha.phase1) = 1
MULES: Correcting alpha.phase1
MULES: Correcting alpha.phase1
MULES: Correcting alpha.phase1
Phase-1 volume fraction = 0.6  Min(alpha.phase1) = 0  Max(alpha.phase1) = 1
smoothSolver:  Solving for alpha.phase1, Initial residual = 5.454024185e-18, Final residual = 5.454024185e-18, No Iterations 0
Phase-1 volume fraction = 0.6  Min(alpha.phase1) = 0  Max(alpha.phase1) = 1
MULES: Correcting alpha.phase1
MULES: Correcting alpha.phase1
MULES: Correcting alpha.phase1
Phase-1 volume fraction = 0.6  Min(alpha.phase1) = 0  Max(alpha.phase1) = 1
smoothSolver:  Solving for alpha.phase1, Initial residual = 5.454024185e-18, Final residual = 5.454024185e-18, No Iterations 0
Phase-1 volume fraction = 0.6  Min(alpha.phase1) = 0  Max(alpha.phase1) = 1
MULES: Correcting alpha.phase1
MULES: Correcting alpha.phase1
MULES: Correcting alpha.phase1
Phase-1 volume fraction = 0.6  Min(alpha.phase1) = 0  Max(alpha.phase1) = 1
iterator_distance 	3.315727928e-06
Beam: 0
Beam: 1
Beam: 2
Beam: 3
Beam: 4
Beam: 5
Beam: 6
Beam: 7
Beam: 8
Beam: 9
Beam: 10
Beam: 11
Beam: 12
Beam: 13
Beam: 14
Beam: 15
Beam: 16
Beam: 17
Beam: 18
Beam: 19
Beam: 20
Beam: 21
Beam: 22
Beam: 23
Beam: 24
Beam: 25
Beam: 26
Beam: 27
Beam: 28
Beam: 29
Beam: 30
Beam: 31
Beam: 32
Beam: 33
Beam: 34
Beam: 35
Beam: 36
Beam: 37
Beam: 38
Beam: 39
Beam: 40
Beam: 41
Beam: 42
Beam: 43
Beam: 44
Beam: 45
Beam: 46
Beam: 47
Beam: 48
Beam: 49
Beam: 50
Beam: 51
Beam: 52
Beam: 53
Beam: 54
Beam: 55
Beam: 56
Beam: 57
Beam: 58
Beam: 59
Beam: 60
Beam: 61
Beam: 62
Beam: 63
Beam: 64
Beam: 65
Beam: 66
Beam: 67
Beam: 68
Beam: 69
Beam: 70
Beam: 71
smoothSolver:  Solving for Uy, Initial residual = 4.362502562e-09, Final residual = 1.029800496e-13, No Iterations 5
smoothSolver:  Solving for Uz, Initial residual = 4.302397365e-06, Final residual = 1.066742613e-17, No Iterations 5
smoothSolver:  Solving for Temperature, Initial residual = 0.01939518431, Final residual = 8.102332593e-10, No Iterations 13
Correcting epsilon1, mean residual = 5.851035951e-06, max residual = 0.0748889634
smoothSolver:  Solving for Temperature, Initial residual = 0.0007227237553, Final residual = 7.468225575e-10, No Iterations 10
Correcting epsilon1, mean residual = 1.689811907e-06, max residual = 0.02214990949
smoothSolver:  Solving for Temperature, Initial residual = 0.0002093395606, Final residual = 8.705961638e-10, No Iterations 9
Correcting epsilon1, mean residual = 4.843000463e-07, max residual = 0.006578359314
smoothSolver:  Solving for Temperature, Initial residual = 6.00484394e-05, Final residual = 2.4974965e-10, No Iterations 9
Correcting epsilon1, mean residual = 1.368088553e-07, max residual = 0.001955901353
smoothSolver:  Solving for Temperature, Initial residual = 1.696709413e-05, Final residual = 2.852271453e-10, No Iterations 8
Correcting epsilon1, mean residual = 4.486941564e-08, max residual = 0.0006112003691
smoothSolver:  Solving for Temperature, Initial residual = 5.5652663e-06, Final residual = 3.167606145e-10, No Iterations 7
Correcting epsilon1, mean residual = 1.864896892e-08, max residual = 0.0002457918523
smoothSolver:  Solving for Temperature, Initial residual = 2.313288203e-06, Final residual = 3.308196517e-10, No Iterations 6
Correcting epsilon1, mean residual = 8.639975346e-09, max residual = 0.0001157063201
smoothSolver:  Solving for Temperature, Initial residual = 1.071896347e-06, Final residual = 3.570155817e-10, No Iterations 5
Correcting epsilon1, mean residual = 4.385187331e-09, max residual = 6.213464277e-05
smoothSolver:  Solving for Temperature, Initial residual = 5.442204035e-07, Final residual = 6.081663795e-10, No Iterations 4
Correcting epsilon1, mean residual = 2.654678148e-09, max residual = 3.628764676e-05
smoothSolver:  Solving for Temperature, Initial residual = 3.29640181e-07, Final residual = 2.948312018e-10, No Iterations 4
Correcting epsilon1, mean residual = 1.695418415e-09, max residual = 2.212925507e-05
smoothSolver:  Solving for Temperature, Initial residual = 2.105075147e-07, Final residual = 7.821708169e-10, No Iterations 3
Correcting epsilon1, mean residual = 1.071351228e-09, max residual = 1.37767107e-05
smoothSolver:  Solving for Temperature, Initial residual = 1.33571984e-07, Final residual = 4.340365505e-10, No Iterations 3
Correcting epsilon1, mean residual = 6.730021623e-10, max residual = 8.635466279e-06
smoothSolver:  Solving for Temperature, Initial residual = 8.388855333e-08, Final residual = 2.491010869e-10, No Iterations 3
Correcting epsilon1, mean residual = 4.215715995e-10, max residual = 5.42631766e-06
smoothSolver:  Solving for Temperature, Initial residual = 5.25367049e-08, Final residual = 9.507567175e-10, No Iterations 2
Correcting epsilon1, mean residual = 2.649350164e-10, max residual = 3.42320652e-06
smoothSolver:  Solving for Temperature, Initial residual = 3.38106956e-08, Final residual = 6.127688049e-10, No Iterations 2
Correcting epsilon1, mean residual = 1.651336078e-10, max residual = 2.14460197e-06
smoothSolver:  Solving for Temperature, Initial residual = 2.109432063e-08, Final residual = 3.783364391e-10, No Iterations 2
Correcting epsilon1, mean residual = 1.028484899e-10, max residual = 1.341823423e-06
smoothSolver:  Solving for Temperature, Initial residual = 1.313465385e-08, Final residual = 2.331595167e-10, No Iterations 2
Correcting epsilon1, mean residual = 6.403533738e-11, max residual = 8.384925323e-07
GAMG:  Solving for p_rgh, Initial residual = 0.005790607743, Final residual = 8.797361864e-10, No Iterations 18
time step continuity errors : sum local = 2.050276908e-18, global = -4.228802139e-21, cumulative = -7.654527142e-22
GAMG:  Solving for p_rgh, Initial residual = 0.001085550859, Final residual = 8.286600324e-10, No Iterations 16
time step continuity errors : sum local = 2.120486859e-18, global = 2.728801767e-21, cumulative = 1.963349053e-21
GAMGPCG:  Solving for p_rgh, Initial residual = 8.59347135e-06, Final residual = 1.239018516e-10, No Iterations 2
time step continuity errors : sum local = 3.963290367e-19, global = 1.469371119e-22, cumulative = 2.110286165e-21
ExecutionTime = 56.82 s  ClockTime = 56 s

Courant Number mean: 1.110651878e-10 max: 1.730135748e-08
Interface Courant Number mean: 0 max: 0
deltaT = 2e-06
Time = 2.4e-05

smoothSolver:  Solving for alpha.phase1, Initial residual = 5.799698087e-18, Final residual = 5.799698087e-18, No Iterations 0
Phase-1 volume fraction = 0.6  Min(alpha.phase1) = 0  Max(alpha.phase1) = 1
MULES: Correcting alpha.phase1
MULES: Correcting alpha.phase1
MULES: Correcting alpha.phase1
Phase-1 volume fraction = 0.6  Min(alpha.phase1) = 0  Max(alpha.phase1) = 1
smoothSolver:  Solving for alpha.phase1, Initial residual = 5.799698087e-18, Final residual = 5.799698087e-18, No Iterations 0
Phase-1 volume fraction = 0.6  Min(alpha.phase1) = 0  Max(alpha.phase1) = 1
MULES: Correcting alpha.phase1
MULES: Correcting alpha.phase1
MULES: Correcting alpha.phase1
Phase-1 volume fraction = 0.6  Min(alpha.phase1) = 0  Max(alpha.phase1) = 1
smoothSolver:  Solving for alpha.phase1, Initial residual = 5.799698087e-18, Final residual = 5.799698087e-18, No Iterations 0
Phase-1 volume fraction = 0.6  Min(alpha.phase1) = 0  Max(alpha.phase1) = 1
MULES: Correcting alpha.phase1
MULES: Correcting alpha.phase1
MULES: Correcting alpha.phase1
Phase-1 volume fraction = 0.6  Min(alpha.phase1) = 0  Max(alpha.phase1) = 1
iterator_distance 	3.315727928e-06
Beam: 0
Beam: 1
Beam: 2
Beam: 3
Beam: 4
Beam: 5
Beam: 6
Beam: 7
Beam: 8
Beam: 9
Beam: 10
Beam: 11
Beam: 12
Beam: 13
Beam: 14
Beam: 15
Beam: 16
Beam: 17
Beam: 18
Beam: 19
Beam: 20
Beam: 21
Beam: 22
Beam: 23
Beam: 24
Beam: 25
Beam: 26
Beam: 27
Beam: 28
Beam: 29
Beam: 30
Beam: 31
Beam: 32
Beam: 33
Beam: 34
Beam: 35
Beam: 36
Beam: 37
Beam: 38
Beam: 39
Beam: 40
Beam: 41
Beam: 42
Beam: 43
Beam: 44
Beam: 45
Beam: 46
Beam: 47
Beam: 48
Beam: 49
Beam: 50
Beam: 51
Beam: 52
Beam: 53
Beam: 54
Beam: 55
Beam: 56
Beam: 57
Beam: 58
Beam: 59
Beam: 60
Beam: 61
Beam: 62
Beam: 63
Beam: 64
Beam: 65
Beam: 66
Beam: 67
Beam: 68
Beam: 69
Beam: 70
Beam: 71
smoothSolver:  Solving for Uy, Initial residual = 4.386588536e-09, Final residual = 9.75592396e-14, No Iterations 5
smoothSolver:  Solving for Uz, Initial residual = 5.122627849e-06, Final residual = 8.31480493e-18, No Iterations 5
smoothSolver:  Solving for Temperature, Initial residual = 0.01771253061, Final residual = 7.292501768e-10, No Iterations 13
Correcting epsilon1, mean residual = 1.162730125e-05, max residual = 0.09885581901
smoothSolver:  Solving for Temperature, Initial residual = 0.001321117638, Final residual = 2.689498228e-10, No Iterations 11
Correcting epsilon1, mean residual = 3.272317685e-06, max residual = 0.0251689479
smoothSolver:  Solving for Temperature, Initial residual = 0.0003737774967, Final residual = 2.726798515e-10, No Iterations 10
Correcting epsilon1, mean residual = 9.272110521e-07, max residual = 0.006991184008
smoothSolver:  Solving for Temperature, Initial residual = 0.0001060537919, Final residual = 3.212042832e-10, No Iterations 9
Correcting epsilon1, mean residual = 2.557683003e-07, max residual = 0.002192187117
smoothSolver:  Solving for Temperature, Initial residual = 2.926622556e-05, Final residual = 4.134613915e-10, No Iterations 8
Correcting epsilon1, mean residual = 7.491713069e-08, max residual = 0.0008504880097
smoothSolver:  Solving for Temperature, Initial residual = 8.573708863e-06, Final residual = 5.07544607e-10, No Iterations 7
Correcting epsilon1, mean residual = 2.291356657e-08, max residual = 0.000354139395
smoothSolver:  Solving for Temperature, Initial residual = 2.622759889e-06, Final residual = 6.517577212e-10, No Iterations 6
Correcting epsilon1, mean residual = 8.801248545e-09, max residual = 0.000156872754
smoothSolver:  Solving for Temperature, Initial residual = 1.007800629e-06, Final residual = 8.853944606e-10, No Iterations 5
Correcting epsilon1, mean residual = 4.038349907e-09, max residual = 7.314974096e-05
smoothSolver:  Solving for Temperature, Initial residual = 4.629448538e-07, Final residual = 3.176815679e-10, No Iterations 5
Correcting epsilon1, mean residual = 1.951480277e-09, max residual = 3.553555327e-05
smoothSolver:  Solving for Temperature, Initial residual = 2.23623904e-07, Final residual = 4.958633216e-10, No Iterations 4
Correcting epsilon1, mean residual = 1.041608604e-09, max residual = 1.785741153e-05
smoothSolver:  Solving for Temperature, Initial residual = 1.195954843e-07, Final residual = 9.235679266e-10, No Iterations 3
Correcting epsilon1, mean residual = 6.039782137e-10, max residual = 9.229350346e-06
smoothSolver:  Solving for Temperature, Initial residual = 6.989945695e-08, Final residual = 4.442865813e-10, No Iterations 3
Correcting epsilon1, mean residual = 3.460102272e-10, max residual = 4.847566204e-06
smoothSolver:  Solving for Temperature, Initial residual = 3.999578151e-08, Final residual = 2.180408109e-10, No Iterations 3
Correcting epsilon1, mean residual = 1.967283556e-10, max residual = 2.593903113e-06
smoothSolver:  Solving for Temperature, Initial residual = 2.271898685e-08, Final residual = 5.897188899e-10, No Iterations 2
Correcting epsilon1, mean residual = 1.12155585e-10, max residual = 1.426381785e-06
smoothSolver:  Solving for Temperature, Initial residual = 1.34251307e-08, Final residual = 3.440036381e-10, No Iterations 2
Correcting epsilon1, mean residual = 6.291511134e-11, max residual = 7.762218913e-07
GAMG:  Solving for p_rgh, Initial residual = 0.005344441703, Final residual = 7.364026738e-10, No Iterations 17
time step continuity errors : sum local = 2.008769571e-18, global = 1.816942995e-23, cumulative = 2.128455595e-21
GAMG:  Solving for p_rgh, Initial residual = 0.001057758852, Final residual = 5.208967804e-10, No Iterations 17
time step continuity errors : sum local = 1.334883339e-18, global = -2.822061277e-23, cumulative = 2.100234982e-21
GAMGPCG:  Solving for p_rgh, Initial residual = 8.634129675e-06, Final residual = 4.88210992e-10, No Iterations 2
time step continuity errors : sum local = 1.786214974e-18, global = 1.772353743e-22, cumulative = 2.277470356e-21
ExecutionTime = 62.06 s  ClockTime = 62 s

Courant Number mean: 1.391963273e-10 max: 2.070295704e-08
Interface Courant Number mean: 0 max: 0
deltaT = 2e-06
Time = 2.6e-05

smoothSolver:  Solving for alpha.phase1, Initial residual = 6.118356601e-18, Final residual = 6.118356601e-18, No Iterations 0
Phase-1 volume fraction = 0.6  Min(alpha.phase1) = 0  Max(alpha.phase1) = 1
MULES: Correcting alpha.phase1
MULES: Correcting alpha.phase1
MULES: Correcting alpha.phase1
Phase-1 volume fraction = 0.6  Min(alpha.phase1) = 0  Max(alpha.phase1) = 1
smoothSolver:  Solving for alpha.phase1, Initial residual = 6.118356601e-18, Final residual = 6.118356601e-18, No Iterations 0
Phase-1 volume fraction = 0.6  Min(alpha.phase1) = 0  Max(alpha.phase1) = 1
MULES: Correcting alpha.phase1
MULES: Correcting alpha.phase1
MULES: Correcting alpha.phase1
Phase-1 volume fraction = 0.6  Min(alpha.phase1) = 0  Max(alpha.phase1) = 1
smoothSolver:  Solving for alpha.phase1, Initial residual = 6.118356601e-18, Final residual = 6.118356601e-18, No Iterations 0
Phase-1 volume fraction = 0.6  Min(alpha.phase1) = 0  Max(alpha.phase1) = 1
MULES: Correcting alpha.phase1
MULES: Correcting alpha.phase1
MULES: Correcting alpha.phase1
Phase-1 volume fraction = 0.6  Min(alpha.phase1) = 0  Max(alpha.phase1) = 1
iterator_distance 	3.315727928e-06
Beam: 0
Beam: 1
Beam: 2
Beam: 3
Beam: 4
Beam: 5
Beam: 6
Beam: 7
Beam: 8
Beam: 9
Beam: 10
Beam: 11
Beam: 12
Beam: 13
Beam: 14
Beam: 15
Beam: 16
Beam: 17
Beam: 18
Beam: 19
Beam: 20
Beam: 21
Beam: 22
Beam: 23
Beam: 24
Beam: 25
Beam: 26
Beam: 27
Beam: 28
Beam: 29
Beam: 30
Beam: 31
Beam: 32
Beam: 33
Beam: 34
Beam: 35
Beam: 36
Beam: 37
Beam: 38
Beam: 39
Beam: 40
Beam: 41
Beam: 42
Beam: 43
Beam: 44
Beam: 45
Beam: 46
Beam: 47
Beam: 48
Beam: 49
Beam: 50
Beam: 51
Beam: 52
Beam: 53
Beam: 54
Beam: 55
Beam: 56
Beam: 57
Beam: 58
Beam: 59
Beam: 60
Beam: 61
Beam: 62
Beam: 63
Beam: 64
Beam: 65
Beam: 66
Beam: 67
Beam: 68
Beam: 69
Beam: 70
Beam: 71
smoothSolver:  Solving for Uy, Initial residual = 4.567713189e-09, Final residual = 9.899223776e-14, No Iterations 5
smoothSolver:  Solving for Uz, Initial residual = 3.704695348e-06, Final residual = 6.6650998e-18, No Iterations 5
smoothSolver:  Solving for Temperature, Initial residual = 0.01635601237, Final residual = 6.596289998e-10, No Iterations 13
Correcting epsilon1, mean residual = 1.606065433e-05, max residual = 0.1135335982
smoothSolver:  Solving for Temperature, Initial residual = 0.001694956012, Final residual = 2.514337325e-10, No Iterations 11
Correcting epsilon1, mean residual = 4.152161787e-06, max residual = 0.02693160731
smoothSolver:  Solving for Temperature, Initial residual = 0.0004411532654, Final residual = 2.699384829e-10, No Iterations 10
Correcting epsilon1, mean residual = 1.089104475e-06, max residual = 0.0066155305
smoothSolver:  Solving for Temperature, Initial residual = 0.0001159162561, Final residual = 3.040617518e-10, No Iterations 9
Correcting epsilon1, mean residual = 2.931671828e-07, max residual = 0.002200978964
smoothSolver:  Solving for Temperature, Initial residual = 3.121718956e-05, Final residual = 3.560881259e-10, No Iterations 8
Correcting epsilon1, mean residual = 8.1960507e-08, max residual = 0.000881721292
smoothSolver:  Solving for Temperature, Initial residual = 8.728724464e-06, Final residual = 4.378060579e-10, No Iterations 7
Correcting epsilon1, mean residual = 2.421789105e-08, max residual = 0.0003821428425
smoothSolver:  Solving for Temperature, Initial residual = 2.579608068e-06, Final residual = 5.7120753e-10, No Iterations 6
Correcting epsilon1, mean residual = 8.364348752e-09, max residual = 0.0001770279236
smoothSolver:  Solving for Temperature, Initial residual = 8.913135141e-07, Final residual = 7.995194269e-10, No Iterations 5
Correcting epsilon1, mean residual = 3.892479288e-09, max residual = 8.65192888e-05
smoothSolver:  Solving for Temperature, Initial residual = 4.151518347e-07, Final residual = 2.96580495e-10, No Iterations 5
Correcting epsilon1, mean residual = 2.260098697e-09, max residual = 4.407910743e-05
smoothSolver:  Solving for Temperature, Initial residual = 2.409334765e-07, Final residual = 4.879459079e-10, No Iterations 4
Correcting epsilon1, mean residual = 1.301348469e-09, max residual = 2.32146973e-05
smoothSolver:  Solving for Temperature, Initial residual = 1.389987722e-07, Final residual = 9.234264998e-10, No Iterations 3
Correcting epsilon1, mean residual = 7.446779649e-10, max residual = 1.255822522e-05
smoothSolver:  Solving for Temperature, Initial residual = 8.014847913e-08, Final residual = 4.59834001e-10, No Iterations 3
Correcting epsilon1, mean residual = 4.23869664e-10, max residual = 6.903492163e-06
smoothSolver:  Solving for Temperature, Initial residual = 4.558260271e-08, Final residual = 2.353635373e-10, No Iterations 3
Correcting epsilon1, mean residual = 2.436561022e-10, max residual = 3.861252215e-06
smoothSolver:  Solving for Temperature, Initial residual = 2.618093448e-08, Final residual = 6.686800542e-10, No Iterations 2
Correcting epsilon1, mean residual = 1.496074083e-10, max residual = 2.212553807e-06
smoothSolver:  Solving for Temperature, Initial residual = 1.653696999e-08, Final residual = 3.968376252e-10, No Iterations 2
Correcting epsilon1, mean residual = 9.19670884e-11, max residual = 1.259319101e-06
smoothSolver:  Solving for Temperature, Initial residual = 1.016409364e-08, Final residual = 2.235211003e-10, No Iterations 2
Correcting epsilon1, mean residual = 5.633821614e-11, max residual = 7.241532403e-07
GAMG:  Solving for p_rgh, Initial residual = 0.006707152053, Final residual = 5.12722148e-10, No Iterations 18
time step continuity errors : sum local = 1.217024294e-18, global = 9.250483412e-23, cumulative = 2.36997519e-21
GAMG:  Solving for p_rgh, Initial residual = 0.001003110836, Final residual = 5.845792482e-10, No Iterations 17
time step continuity errors : sum local = 1.626069454e-18, global = 6.034650957e-24, cumulative = 2.376009841e-21
GAMGPCG:  Solving for p_rgh, Initial residual = 1.130446148e-05, Final residual = 8.485349806e-10, No Iterations 2
time step continuity errors : sum local = 2.525980944e-18, global = 1.145032911e-22, cumulative = 2.490513132e-21
ExecutionTime = 67.31 s  ClockTime = 67 s

Courant Number mean: 1.709314568e-10 max: 2.432556091e-08
Interface Courant Number mean: 0 max: 0
deltaT = 2e-06
Time = 2.8e-05

smoothSolver:  Solving for alpha.phase1, Initial residual = 6.256073072e-18, Final residual = 6.256073072e-18, No Iterations 0
Phase-1 volume fraction = 0.6  Min(alpha.phase1) = 0  Max(alpha.phase1) = 1
MULES: Correcting alpha.phase1
MULES: Correcting alpha.phase1
MULES: Correcting alpha.phase1
Phase-1 volume fraction = 0.6  Min(alpha.phase1) = 0  Max(alpha.phase1) = 1
smoothSolver:  Solving for alpha.phase1, Initial residual = 6.256073072e-18, Final residual = 6.256073072e-18, No Iterations 0
Phase-1 volume fraction = 0.6  Min(alpha.phase1) = 0  Max(alpha.phase1) = 1
MULES: Correcting alpha.phase1
MULES: Correcting alpha.phase1
MULES: Correcting alpha.phase1
Phase-1 volume fraction = 0.6  Min(alpha.phase1) = 0  Max(alpha.phase1) = 1
smoothSolver:  Solving for alpha.phase1, Initial residual = 6.256073072e-18, Final residual = 6.256073072e-18, No Iterations 0
Phase-1 volume fraction = 0.6  Min(alpha.phase1) = 0  Max(alpha.phase1) = 1
MULES: Correcting alpha.phase1
MULES: Correcting alpha.phase1
MULES: Correcting alpha.phase1
Phase-1 volume fraction = 0.6  Min(alpha.phase1) = 0  Max(alpha.phase1) = 1
iterator_distance 	3.315727928e-06
Beam: 0
Beam: 1
Beam: 2
Beam: 3
Beam: 4
Beam: 5
Beam: 6
Beam: 7
Beam: 8
Beam: 9
Beam: 10
Beam: 11
Beam: 12
Beam: 13
Beam: 14
Beam: 15
Beam: 16
Beam: 17
Beam: 18
Beam: 19
Beam: 20
Beam: 21
Beam: 22
Beam: 23
Beam: 24
Beam: 25
Beam: 26
Beam: 27
Beam: 28
Beam: 29
Beam: 30
Beam: 31
Beam: 32
Beam: 33
Beam: 34
Beam: 35
Beam: 36
Beam: 37
Beam: 38
Beam: 39
Beam: 40
Beam: 41
Beam: 42
Beam: 43
Beam: 44
Beam: 45
Beam: 46
Beam: 47
Beam: 48
Beam: 49
Beam: 50
Beam: 51
Beam: 52
Beam: 53
Beam: 54
Beam: 55
Beam: 56
Beam: 57
Beam: 58
Beam: 59
Beam: 60
Beam: 61
Beam: 62
Beam: 63
Beam: 64
Beam: 65
Beam: 66
Beam: 67
Beam: 68
Beam: 69
Beam: 70
Beam: 71
smoothSolver:  Solving for Uy, Initial residual = 4.74878734e-09, Final residual = 1.028818418e-13, No Iterations 5
smoothSolver:  Solving for Uz, Initial residual = 2.646202158e-06, Final residual = 5.39134941e-18, No Iterations 5
smoothSolver:  Solving for Temperature, Initial residual = 0.01523210779, Final residual = 6.024764614e-10, No Iterations 13
Correcting epsilon1, mean residual = 2.018956223e-05, max residual = 0.1262356504
smoothSolver:  Solving for Temperature, Initial residual = 0.001993962764, Final residual = 8.863120928e-10, No Iterations 10
Correcting epsilon1, mean residual = 4.87533778e-06, max residual = 0.02798268301
smoothSolver:  Solving for Temperature, Initial residual = 0.0004852664809, Final residual = 9.317361968e-10, No Iterations 9
Correcting epsilon1, mean residual = 1.190126129e-06, max residual = 0.006596414599
smoothSolver:  Solving for Temperature, Initial residual = 0.0001186849281, Final residual = 2.371251268e-10, No Iterations 9
Correcting epsilon1, mean residual = 2.943507079e-07, max residual = 0.002177708517
smoothSolver:  Solving for Temperature, Initial residual = 2.936769567e-05, Final residual = 2.601822886e-10, No Iterations 8
Correcting epsilon1, mean residual = 7.379295884e-08, max residual = 0.0008096729369
smoothSolver:  Solving for Temperature, Initial residual = 7.363455367e-06, Final residual = 2.914056246e-10, No Iterations 7
Correcting epsilon1, mean residual = 1.94801285e-08, max residual = 0.00034268044
smoothSolver:  Solving for Temperature, Initial residual = 1.944073799e-06, Final residual = 3.280815148e-10, No Iterations 6
Correcting epsilon1, mean residual = 8.752433295e-09, max residual = 0.0001633458994
smoothSolver:  Solving for Temperature, Initial residual = 8.736069371e-07, Final residual = 3.596669634e-10, No Iterations 5
Correcting epsilon1, mean residual = 5.277785951e-09, max residual = 8.541077996e-05
smoothSolver:  Solving for Temperature, Initial residual = 5.268653837e-07, Final residual = 3.821133859e-10, No Iterations 4
Correcting epsilon1, mean residual = 3.291550246e-09, max residual = 4.758793953e-05
smoothSolver:  Solving for Temperature, Initial residual = 3.287066137e-07, Final residual = 7.135290991e-10, No Iterations 3
Correcting epsilon1, mean residual = 2.07420883e-09, max residual = 2.761641008e-05
smoothSolver:  Solving for Temperature, Initial residual = 2.076323054e-07, Final residual = 4.226824906e-10, No Iterations 3
Correcting epsilon1, mean residual = 1.304264485e-09, max residual = 1.639739245e-05
smoothSolver:  Solving for Temperature, Initial residual = 1.305568083e-07, Final residual = 2.752850118e-10, No Iterations 3
Correcting epsilon1, mean residual = 8.192827335e-10, max residual = 9.89095557e-06
smoothSolver:  Solving for Temperature, Initial residual = 8.201849453e-08, Final residual = 1.755644418e-10, No Iterations 3
Correcting epsilon1, mean residual = 5.13160518e-10, max residual = 6.023311465e-06
smoothSolver:  Solving for Temperature, Initial residual = 5.137736123e-08, Final residual = 7.45719887e-10, No Iterations 2
Correcting epsilon1, mean residual = 3.233867171e-10, max residual = 3.705453593e-06
smoothSolver:  Solving for Temperature, Initial residual = 3.300775962e-08, Final residual = 4.834781712e-10, No Iterations 2
Correcting epsilon1, mean residual = 2.02732503e-10, max residual = 2.27218581e-06
smoothSolver:  Solving for Temperature, Initial residual = 2.070953825e-08, Final residual = 3.011264725e-10, No Iterations 2
Correcting epsilon1, mean residual = 1.269160538e-10, max residual = 1.397198248e-06
smoothSolver:  Solving for Temperature, Initial residual = 1.296373119e-08, Final residual = 1.864501761e-10, No Iterations 2
Correcting epsilon1, mean residual = 7.937650557e-11, max residual = 8.607388083e-07
GAMG:  Solving for p_rgh, Initial residual = 0.004969142505, Final residual = 5.576952604e-10, No Iterations 17
time step continuity errors : sum local = 1.784972042e-18, global = -2.341117539e-24, cumulative = 2.488172015e-21
GAMG:  Solving for p_rgh, Initial residual = 0.0007508094943, Final residual = 5.126758702e-10, No Iterations 17
time step continuity errors : sum local = 1.856054497e-18, global = 1.554819637e-24, cumulative = 2.489726834e-21
GAMGPCG:  Solving for p_rgh, Initial residual = 9.375906129e-06, Final residual = 7.483475242e-10, No Iterations 2
time step continuity errors : sum local = 2.520043542e-18, global = -7.128606256e-23, cumulative = 2.418440772e-21
ExecutionTime = 72.56 s  ClockTime = 72 s

Courant Number mean: 2.06219982e-10 max: 2.813466017e-08
Interface Courant Number mean: 0 max: 0
deltaT = 2e-06
Time = 3e-05

smoothSolver:  Solving for alpha.phase1, Initial residual = 6.507833041e-18, Final residual = 6.507833041e-18, No Iterations 0
Phase-1 volume fraction = 0.6  Min(alpha.phase1) = 0  Max(alpha.phase1) = 1
MULES: Correcting alpha.phase1
MULES: Correcting alpha.phase1
MULES: Correcting alpha.phase1
Phase-1 volume fraction = 0.6  Min(alpha.phase1) = 0  Max(alpha.phase1) = 1
smoothSolver:  Solving for alpha.phase1, Initial residual = 6.507833041e-18, Final residual = 6.507833041e-18, No Iterations 0
Phase-1 volume fraction = 0.6  Min(alpha.phase1) = 0  Max(alpha.phase1) = 1
MULES: Correcting alpha.phase1
MULES: Correcting alpha.phase1
MULES: Correcting alpha.phase1
Phase-1 volume fraction = 0.6  Min(alpha.phase1) = 0  Max(alpha.phase1) = 1
smoothSolver:  Solving for alpha.phase1, Initial residual = 6.507833041e-18, Final residual = 6.507833041e-18, No Iterations 0
Phase-1 volume fraction = 0.6  Min(alpha.phase1) = 0  Max(alpha.phase1) = 1
MULES: Correcting alpha.phase1
MULES: Correcting alpha.phase1
MULES: Correcting alpha.phase1
Phase-1 volume fraction = 0.6  Min(alpha.phase1) = 0  Max(alpha.phase1) = 1
iterator_distance 	3.315727928e-06
Beam: 0
Beam: 1
Beam: 2
Beam: 3
Beam: 4
Beam: 5
Beam: 6
Beam: 7
Beam: 8
Beam: 9
Beam: 10
Beam: 11
Beam: 12
Beam: 13
Beam: 14
Beam: 15
Beam: 16
Beam: 17
Beam: 18
Beam: 19
Beam: 20
Beam: 21
Beam: 22
Beam: 23
Beam: 24
Beam: 25
Beam: 26
Beam: 27
Beam: 28
Beam: 29
Beam: 30
Beam: 31
Beam: 32
Beam: 33
Beam: 34
Beam: 35
Beam: 36
Beam: 37
Beam: 38
Beam: 39
Beam: 40
Beam: 41
Beam: 42
Beam: 43
Beam: 44
Beam: 45
Beam: 46
Beam: 47
Beam: 48
Beam: 49
Beam: 50
Beam: 51
Beam: 52
Beam: 53
Beam: 54
Beam: 55
Beam: 56
Beam: 57
Beam: 58
Beam: 59
Beam: 60
Beam: 61
Beam: 62
Beam: 63
Beam: 64
Beam: 65
Beam: 66
Beam: 67
Beam: 68
Beam: 69
Beam: 70
Beam: 71
smoothSolver:  Solving for Uy, Initial residual = 5.02874749e-09, Final residual = 1.103163984e-13, No Iterations 5
smoothSolver:  Solving for Uz, Initial residual = 1.941221998e-06, Final residual = 4.429927572e-18, No Iterations 5
smoothSolver:  Solving for Temperature, Initial residual = 0.01428180131, Final residual = 5.55779794e-10, No Iterations 13
Correcting epsilon1, mean residual = 2.369454e-05, max residual = 0.1377753935
smoothSolver:  Solving for Temperature, Initial residual = 0.002203230488, Final residual = 7.313607032e-10, No Iterations 10
Correcting epsilon1, mean residual = 5.30176969e-06, max residual = 0.02838968798
smoothSolver:  Solving for Temperature, Initial residual = 0.0004971780985, Final residual = 7.061471497e-10, No Iterations 9
Correcting epsilon1, mean residual = 1.348050649e-06, max residual = 0.006752331102
smoothSolver:  Solving for Temperature, Initial residual = 0.0001266567506, Final residual = 6.736669853e-10, No Iterations 8
Correcting epsilon1, mean residual = 3.959617453e-07, max residual = 0.002827466044
smoothSolver:  Solving for Temperature, Initial residual = 3.721900456e-05, Final residual = 6.118663851e-10, No Iterations 7
Correcting epsilon1, mean residual = 1.425281662e-07, max residual = 0.001402228211
smoothSolver:  Solving for Temperature, Initial residual = 1.339870832e-05, Final residual = 7.022904592e-10, No Iterations 6
Correcting epsilon1, mean residual = 6.296060332e-08, max residual = 0.0008192507885
smoothSolver:  Solving for Temperature, Initial residual = 5.919320477e-06, Final residual = 2.734931862e-10, No Iterations 6
Correcting epsilon1, mean residual = 3.530890965e-08, max residual = 0.0004881085261
smoothSolver:  Solving for Temperature, Initial residual = 3.319454722e-06, Final residual = 6.242740951e-10, No Iterations 5
Correcting epsilon1, mean residual = 2.192577187e-08, max residual = 0.0002887001146
smoothSolver:  Solving for Temperature, Initial residual = 2.061692943e-06, Final residual = 3.386627745e-10, No Iterations 5
Correcting epsilon1, mean residual = 1.356989163e-08, max residual = 0.0001707350566
smoothSolver:  Solving for Temperature, Initial residual = 1.27595635e-06, Final residual = 8.742419066e-10, No Iterations 4
Correcting epsilon1, mean residual = 8.368497495e-09, max residual = 0.0001044040514
smoothSolver:  Solving for Temperature, Initial residual = 7.875135909e-07, Final residual = 5.022818949e-10, No Iterations 4
Correcting epsilon1, mean residual = 5.235841589e-09, max residual = 6.452081338e-05
smoothSolver:  Solving for Temperature, Initial residual = 4.926836014e-07, Final residual = 2.925258488e-10, No Iterations 4
Correcting epsilon1, mean residual = 3.28733209e-09, max residual = 3.992295954e-05
smoothSolver:  Solving for Temperature, Initial residual = 3.093119844e-07, Final residual = 8.687333748e-10, No Iterations 3
Correcting epsilon1, mean residual = 2.062472512e-09, max residual = 2.472654756e-05
smoothSolver:  Solving for Temperature, Initial residual = 1.947411648e-07, Final residual = 5.275057551e-10, No Iterations 3
Correcting epsilon1, mean residual = 1.291748402e-09, max residual = 1.53166958e-05
smoothSolver:  Solving for Temperature, Initial residual = 1.219529591e-07, Final residual = 3.169380944e-10, No Iterations 3
Correcting epsilon1, mean residual = 8.084613344e-10, max residual = 9.491149641e-06
smoothSolver:  Solving for Temperature, Initial residual = 7.631330601e-08, Final residual = 1.910917358e-10, No Iterations 3
Correcting epsilon1, mean residual = 5.081690326e-10, max residual = 5.883274081e-06
smoothSolver:  Solving for Temperature, Initial residual = 4.796010092e-08, Final residual = 7.452066388e-10, No Iterations 2
Correcting epsilon1, mean residual = 3.205868494e-10, max residual = 3.662630318e-06
smoothSolver:  Solving for Temperature, Initial residual = 3.087907291e-08, Final residual = 4.780927839e-10, No Iterations 2
Correcting epsilon1, mean residual = 2.008649088e-10, max residual = 2.267030054e-06
smoothSolver:  Solving for Temperature, Initial residual = 1.935905889e-08, Final residual = 2.943866156e-10, No Iterations 2
Correcting epsilon1, mean residual = 1.257782267e-10, max residual = 1.40367253e-06
smoothSolver:  Solving for Temperature, Initial residual = 1.211766721e-08, Final residual = 1.809519774e-10, No Iterations 2
Correcting epsilon1, mean residual = 7.874134293e-11, max residual = 8.693002156e-07
GAMG:  Solving for p_rgh, Initial residual = 0.004067845161, Final residual = 4.946845919e-10, No Iterations 17
time step continuity errors : sum local = 1.827900755e-18, global = 3.736495375e-23, cumulative = 2.455805726e-21
GAMG:  Solving for p_rgh, Initial residual = 0.0008073158221, Final residual = 5.790609988e-10, No Iterations 17
time step continuity errors : sum local = 1.84349343e-18, global = -5.640699211e-23, cumulative = 2.399398733e-21
GAMGPCG:  Solving for p_rgh, Initial residual = 8.311853081e-06, Final residual = 5.74441235e-10, No Iterations 2
time step continuity errors : sum local = 1.956479901e-18, global = -6.291401963e-23, cumulative = 2.336484714e-21
ExecutionTime = 77.85 s  ClockTime = 77 s

Courant Number mean: 2.449723003e-10 max: 3.209173828e-08
Interface Courant Number mean: 0 max: 0
deltaT = 2e-06
Time = 3.2e-05

smoothSolver:  Solving for alpha.phase1, Initial residual = 6.683477872e-18, Final residual = 6.683477872e-18, No Iterations 0
Phase-1 volume fraction = 0.6  Min(alpha.phase1) = 0  Max(alpha.phase1) = 1
MULES: Correcting alpha.phase1
MULES: Correcting alpha.phase1
MULES: Correcting alpha.phase1
Phase-1 volume fraction = 0.6  Min(alpha.phase1) = 0  Max(alpha.phase1) = 1
smoothSolver:  Solving for alpha.phase1, Initial residual = 6.683477872e-18, Final residual = 6.683477872e-18, No Iterations 0
Phase-1 volume fraction = 0.6  Min(alpha.phase1) = 0  Max(alpha.phase1) = 1
MULES: Correcting alpha.phase1
MULES: Correcting alpha.phase1
MULES: Correcting alpha.phase1
Phase-1 volume fraction = 0.6  Min(alpha.phase1) = 0  Max(alpha.phase1) = 1
smoothSolver:  Solving for alpha.phase1, Initial residual = 6.683477872e-18, Final residual = 6.683477872e-18, No Iterations 0
Phase-1 volume fraction = 0.6  Min(alpha.phase1) = 0  Max(alpha.phase1) = 1
MULES: Correcting alpha.phase1
MULES: Correcting alpha.phase1
MULES: Correcting alpha.phase1
Phase-1 volume fraction = 0.6  Min(alpha.phase1) = 0  Max(alpha.phase1) = 1
iterator_distance 	3.315727928e-06
Beam: 0
Beam: 1
Beam: 2
Beam: 3
Beam: 4
Beam: 5
Beam: 6
Beam: 7
Beam: 8
Beam: 9
Beam: 10
Beam: 11
Beam: 12
Beam: 13
Beam: 14
Beam: 15
Beam: 16
Beam: 17
Beam: 18
Beam: 19
Beam: 20
Beam: 21
Beam: 22
Beam: 23
Beam: 24
Beam: 25
Beam: 26
Beam: 27
Beam: 28
Beam: 29
Beam: 30
Beam: 31
Beam: 32
Beam: 33
Beam: 34
Beam: 35
Beam: 36
Beam: 37
Beam: 38
Beam: 39
Beam: 40
Beam: 41
Beam: 42
Beam: 43
Beam: 44
Beam: 45
Beam: 46
Beam: 47
Beam: 48
Beam: 49
Beam: 50
Beam: 51
Beam: 52
Beam: 53
Beam: 54
Beam: 55
Beam: 56
Beam: 57
Beam: 58
Beam: 59
Beam: 60
Beam: 61
Beam: 62
Beam: 63
Beam: 64
Beam: 65
Beam: 66
Beam: 67
Beam: 68
Beam: 69
Beam: 70
Beam: 71
smoothSolver:  Solving for Uy, Initial residual = 0.009189883043, Final residual = 8.653950369e-10, No Iterations 5
smoothSolver:  Solving for Uz, Initial residual = 1.505661723e-06, Final residual = 4.778130685e-15, No Iterations 5
smoothSolver:  Solving for Temperature, Initial residual = 0.01346336953, Final residual = 5.173557624e-10, No Iterations 13
Correcting epsilon1, mean residual = 2.714009735e-05, max residual = 0.1486166857
smoothSolver:  Solving for Temperature, Initial residual = 0.002387599025, Final residual = 6.208226365e-10, No Iterations 10
Correcting epsilon1, mean residual = 5.909413342e-06, max residual = 0.02826088884
smoothSolver:  Solving for Temperature, Initial residual = 0.0005245966264, Final residual = 6.27313354e-10, No Iterations 9
Correcting epsilon1, mean residual = 1.321898726e-06, max residual = 0.006094593741
smoothSolver:  Solving for Temperature, Initial residual = 0.0001175837379, Final residual = 6.755975732e-10, No Iterations 8
Correcting epsilon1, mean residual = 3.071385912e-07, max residual = 0.001809144358
smoothSolver:  Solving for Temperature, Initial residual = 2.733299499e-05, Final residual = 7.741121057e-10, No Iterations 7
Correcting epsilon1, mean residual = 7.519435174e-08, max residual = 0.0005648743252
smoothSolver:  Solving for Temperature, Initial residual = 6.693039393e-06, Final residual = 9.441327751e-10, No Iterations 6
Correcting epsilon1, mean residual = 1.972764758e-08, max residual = 0.0002103903807
smoothSolver:  Solving for Temperature, Initial residual = 1.756742313e-06, Final residual = 2.884604226e-10, No Iterations 6
Correcting epsilon1, mean residual = 6.237424565e-09, max residual = 8.630832907e-05
smoothSolver:  Solving for Temperature, Initial residual = 5.55412229e-07, Final residual = 4.018794011e-10, No Iterations 5
Correcting epsilon1, mean residual = 2.615526136e-09, max residual = 3.71584478e-05
smoothSolver:  Solving for Temperature, Initial residual = 2.331590845e-07, Final residual = 5.941232822e-10, No Iterations 4
Correcting epsilon1, mean residual = 1.196520443e-09, max residual = 1.664648555e-05
smoothSolver:  Solving for Temperature, Initial residual = 1.070489096e-07, Final residual = 9.304908645e-10, No Iterations 3
Correcting epsilon1, mean residual = 5.785720341e-10, max residual = 7.714778212e-06
smoothSolver:  Solving for Temperature, Initial residual = 5.240468441e-08, Final residual = 3.978183798e-10, No Iterations 3
Correcting epsilon1, mean residual = 2.858291521e-10, max residual = 3.636347639e-06
smoothSolver:  Solving for Temperature, Initial residual = 2.583277104e-08, Final residual = 8.177361139e-10, No Iterations 2
Correcting epsilon1, mean residual = 1.45335743e-10, max residual = 1.786226034e-06
smoothSolver:  Solving for Temperature, Initial residual = 1.374574614e-08, Final residual = 4.156037886e-10, No Iterations 2
Correcting epsilon1, mean residual = 7.269187139e-11, max residual = 8.590495954e-07
GAMG:  Solving for p_rgh, Initial residual = 0.8003004669, Final residual = 9.524050894e-10, No Iterations 45
time step continuity errors : sum local = 1.421869891e-15, global = -2.58113762e-19, cumulative = -2.557772773e-19
GAMG:  Solving for p_rgh, Initial residual = 0.0001084356402, Final residual = 6.628462709e-10, No Iterations 13
time step continuity errors : sum local = 3.016578123e-13, global = -1.937522377e-18, cumulative = -2.193299654e-18
GAMGPCG:  Solving for p_rgh, Initial residual = 7.234771597e-06, Final residual = 4.506905806e-10, No Iterations 2
time step continuity errors : sum local = 1.082941997e-13, global = -8.903847927e-18, cumulative = -1.109714758e-17
ExecutionTime = 83.17 s  ClockTime = 83 s

Courant Number mean: 3.693348364e-07 max: 0.001232522635
Interface Courant Number mean: 0 max: 0
deltaT = 2e-06
Time = 3.4e-05

smoothSolver:  Solving for alpha.phase1, Initial residual = 1.445814819e-17, Final residual = 1.445814819e-17, No Iterations 0
Phase-1 volume fraction = 0.6  Min(alpha.phase1) = 0  Max(alpha.phase1) = 1
MULES: Correcting alpha.phase1
MULES: Correcting alpha.phase1
MULES: Correcting alpha.phase1
Phase-1 volume fraction = 0.6  Min(alpha.phase1) = 0  Max(alpha.phase1) = 1
smoothSolver:  Solving for alpha.phase1, Initial residual = 1.445814819e-17, Final residual = 1.445814819e-17, No Iterations 0
Phase-1 volume fraction = 0.6  Min(alpha.phase1) = 0  Max(alpha.phase1) = 1
MULES: Correcting alpha.phase1
MULES: Correcting alpha.phase1
MULES: Correcting alpha.phase1
Phase-1 volume fraction = 0.6  Min(alpha.phase1) = 0  Max(alpha.phase1) = 1
smoothSolver:  Solving for alpha.phase1, Initial residual = 1.445814819e-17, Final residual = 1.445814819e-17, No Iterations 0
Phase-1 volume fraction = 0.6  Min(alpha.phase1) = 0  Max(alpha.phase1) = 1
MULES: Correcting alpha.phase1
MULES: Correcting alpha.phase1
MULES: Correcting alpha.phase1
Phase-1 volume fraction = 0.6  Min(alpha.phase1) = 0  Max(alpha.phase1) = 1
iterator_distance 	3.315727928e-06
Beam: 0
Beam: 1
Beam: 2
Beam: 3
Beam: 4
Beam: 5
Beam: 6
Beam: 7
Beam: 8
Beam: 9
Beam: 10
Beam: 11
Beam: 12
Beam: 13
Beam: 14
Beam: 15
Beam: 16
Beam: 17
Beam: 18
Beam: 19
Beam: 20
Beam: 21
Beam: 22
Beam: 23
Beam: 24
Beam: 25
Beam: 26
Beam: 27
Beam: 28
Beam: 29
Beam: 30
Beam: 31
Beam: 32
Beam: 33
Beam: 34
Beam: 35
Beam: 36
Beam: 37
Beam: 38
Beam: 39
Beam: 40
Beam: 41
Beam: 42
Beam: 43
Beam: 44
Beam: 45
Beam: 46
Beam: 47
Beam: 48
Beam: 49
Beam: 50
Beam: 51
Beam: 52
Beam: 53
Beam: 54
Beam: 55
Beam: 56
Beam: 57
Beam: 58
Beam: 59
Beam: 60
Beam: 61
Beam: 62
Beam: 63
Beam: 64
Beam: 65
Beam: 66
Beam: 67
Beam: 68
Beam: 69
Beam: 70
Beam: 71
smoothSolver:  Solving for Uy, Initial residual = 0.001816885022, Final residual = 1.975255428e-10, No Iterations 5
smoothSolver:  Solving for Uz, Initial residual = 2.041979002e-08, Final residual = 3.136076123e-16, No Iterations 5
smoothSolver:  Solving for Temperature, Initial residual = 0.01275347596, Final residual = 4.847940539e-10, No Iterations 13
Correcting epsilon1, mean residual = 2.736746961e-05, max residual = 0.1446005804
smoothSolver:  Solving for Temperature, Initial residual = 0.002287221857, Final residual = 4.979705366e-10, No Iterations 10
Correcting epsilon1, mean residual = 4.309282348e-06, max residual = 0.02893228489
smoothSolver:  Solving for Temperature, Initial residual = 0.0003631909593, Final residual = 4.053518571e-10, No Iterations 9
Correcting epsilon1, mean residual = 1.218230954e-06, max residual = 0.007999129816
smoothSolver:  Solving for Temperature, Initial residual = 0.0001028110626, Final residual = 3.696915573e-10, No Iterations 8
Correcting epsilon1, mean residual = 3.950786225e-07, max residual = 0.002836079413
smoothSolver:  Solving for Temperature, Initial residual = 3.335279938e-05, Final residual = 3.381160211e-10, No Iterations 7
Correcting epsilon1, mean residual = 1.53146807e-07, max residual = 0.001569503578
smoothSolver:  Solving for Temperature, Initial residual = 1.292984699e-05, Final residual = 5.350650938e-10, No Iterations 6
Correcting epsilon1, mean residual = 7.511165688e-08, max residual = 0.0009371390872
smoothSolver:  Solving for Temperature, Initial residual = 6.341956184e-06, Final residual = 2.574338334e-10, No Iterations 6
Correcting epsilon1, mean residual = 4.353626767e-08, max residual = 0.0005512784654
smoothSolver:  Solving for Temperature, Initial residual = 3.67586465e-06, Final residual = 6.293926256e-10, No Iterations 5
Correcting epsilon1, mean residual = 2.61396636e-08, max residual = 0.0003234198502
smoothSolver:  Solving for Temperature, Initial residual = 2.20746971e-06, Final residual = 3.53648525e-10, No Iterations 5
Correcting epsilon1, mean residual = 1.572837782e-08, max residual = 0.00019012083
smoothSolver:  Solving for Temperature, Initial residual = 1.328232383e-06, Final residual = 8.934663009e-10, No Iterations 4
Correcting epsilon1, mean residual = 9.638683508e-09, max residual = 0.0001125735438
smoothSolver:  Solving for Temperature, Initial residual = 8.146282581e-07, Final residual = 5.129224941e-10, No Iterations 4
Correcting epsilon1, mean residual = 5.932253617e-09, max residual = 6.929490805e-05
smoothSolver:  Solving for Temperature, Initial residual = 5.013419537e-07, Final residual = 2.965719366e-10, No Iterations 4
Correcting epsilon1, mean residual = 3.662353186e-09, max residual = 4.268111884e-05
smoothSolver:  Solving for Temperature, Initial residual = 3.094920473e-07, Final residual = 8.611685592e-10, No Iterations 3
Correcting epsilon1, mean residual = 2.266875318e-09, max residual = 2.630243063e-05
smoothSolver:  Solving for Temperature, Initial residual = 1.922420727e-07, Final residual = 5.179219032e-10, No Iterations 3
Correcting epsilon1, mean residual = 1.403903005e-09, max residual = 1.620677683e-05
smoothSolver:  Solving for Temperature, Initial residual = 1.190436693e-07, Final residual = 3.087567995e-10, No Iterations 3
Correcting epsilon1, mean residual = 8.702283972e-10, max residual = 9.98639628e-06
smoothSolver:  Solving for Temperature, Initial residual = 7.377893025e-08, Final residual = 1.848914445e-10, No Iterations 3
Correcting epsilon1, mean residual = 5.397000965e-10, max residual = 6.153560522e-06
smoothSolver:  Solving for Temperature, Initial residual = 4.574996432e-08, Final residual = 7.059805789e-10, No Iterations 2
Correcting epsilon1, mean residual = 3.361761235e-10, max residual = 3.806817016e-06
smoothSolver:  Solving for Temperature, Initial residual = 2.908820963e-08, Final residual = 4.499039969e-10, No Iterations 2
Correcting epsilon1, mean residual = 2.080341611e-10, max residual = 2.340859213e-06
smoothSolver:  Solving for Temperature, Initial residual = 1.801353451e-08, Final residual = 2.747975021e-10, No Iterations 2
Correcting epsilon1, mean residual = 1.287067948e-10, max residual = 1.439518309e-06
smoothSolver:  Solving for Temperature, Initial residual = 1.114108317e-08, Final residual = 1.675672526e-10, No Iterations 2
Correcting epsilon1, mean residual = 7.961875379e-11, max residual = 8.851323336e-07
GAMG:  Solving for p_rgh, Initial residual = 0.00319960422, Final residual = 4.988975865e-10, No Iterations 19
time step continuity errors : sum local = 1.50681568e-13, global = -2.253042867e-18, cumulative = -1.335019045e-17
GAMG:  Solving for p_rgh, Initial residual = 0.0001443221337, Final residual = 7.649864041e-10, No Iterations 15
time step continuity errors : sum local = 3.768342407e-13, global = 3.068421963e-18, cumulative = -1.028176849e-17
GAMGPCG:  Solving for p_rgh, Initial residual = 4.765313017e-06, Final residual = 3.234919783e-10, No Iterations 2
time step continuity errors : sum local = 1.712380711e-13, global = -7.340470592e-17, cumulative = -8.36864744e-17
ExecutionTime = 88.47 s  ClockTime = 88 s

Courant Number mean: 1.793229657e-06 max: 0.004084688595
Interface Courant Number mean: 0 max: 0
deltaT = 2e-06
Time = 3.6e-05

smoothSolver:  Solving for alpha.phase1, Initial residual = 1.878405648e-17, Final residual = 1.878405648e-17, No Iterations 0
Phase-1 volume fraction = 0.6  Min(alpha.phase1) = 0  Max(alpha.phase1) = 1
MULES: Correcting alpha.phase1
MULES: Correcting alpha.phase1
MULES: Correcting alpha.phase1
Phase-1 volume fraction = 0.6  Min(alpha.phase1) = 0  Max(alpha.phase1) = 1
smoothSolver:  Solving for alpha.phase1, Initial residual = 1.878405648e-17, Final residual = 1.878405648e-17, No Iterations 0
Phase-1 volume fraction = 0.6  Min(alpha.phase1) = 0  Max(alpha.phase1) = 1
MULES: Correcting alpha.phase1
MULES: Correcting alpha.phase1
MULES: Correcting alpha.phase1
Phase-1 volume fraction = 0.6  Min(alpha.phase1) = 0  Max(alpha.phase1) = 1
smoothSolver:  Solving for alpha.phase1, Initial residual = 1.878405648e-17, Final residual = 1.878405648e-17, No Iterations 0
Phase-1 volume fraction = 0.6  Min(alpha.phase1) = 0  Max(alpha.phase1) = 1
MULES: Correcting alpha.phase1
MULES: Correcting alpha.phase1
MULES: Correcting alpha.phase1
Phase-1 volume fraction = 0.6  Min(alpha.phase1) = 0  Max(alpha.phase1) = 1
iterator_distance 	3.315727928e-06
Beam: 0
Beam: 1
Beam: 2
Beam: 3
Beam: 4
Beam: 5
Beam: 6
Beam: 7
Beam: 8
Beam: 9
Beam: 10
Beam: 11
Beam: 12
Beam: 13
Beam: 14
Beam: 15
Beam: 16
Beam: 17
Beam: 18
Beam: 19
Beam: 20
Beam: 21
Beam: 22
Beam: 23
Beam: 24
Beam: 25
Beam: 26
Beam: 27
Beam: 28
Beam: 29
Beam: 30
Beam: 31
Beam: 32
Beam: 33
Beam: 34
Beam: 35
Beam: 36
Beam: 37
Beam: 38
Beam: 39
Beam: 40
Beam: 41
Beam: 42
Beam: 43
Beam: 44
Beam: 45
Beam: 46
Beam: 47
Beam: 48
Beam: 49
Beam: 50
Beam: 51
Beam: 52
Beam: 53
Beam: 54
Beam: 55
Beam: 56
Beam: 57
Beam: 58
Beam: 59
Beam: 60
Beam: 61
Beam: 62
Beam: 63
Beam: 64
Beam: 65
Beam: 66
Beam: 67
Beam: 68
Beam: 69
Beam: 70
Beam: 71
smoothSolver:  Solving for Uy, Initial residual = 3.148947645e-09, Final residual = 2.518755085e-15, No Iterations 5
smoothSolver:  Solving for Uz, Initial residual = 3.290364175e-09, Final residual = 1.718133579e-16, No Iterations 5
smoothSolver:  Solving for Temperature, Initial residual = 0.01210826831, Final residual = 4.572485973e-10, No Iterations 13
Correcting epsilon1, mean residual = 1.831387826e-05, max residual = 0.1404352521
smoothSolver:  Solving for Temperature, Initial residual = 0.001455742381, Final residual = 3.905201932e-10, No Iterations 10
Correcting epsilon1, mean residual = 4.014102873e-06, max residual = 0.03530142623
smoothSolver:  Solving for Temperature, Initial residual = 0.0003208289048, Final residual = 3.948299868e-10, No Iterations 9
[...]
Beam: 3
Beam: 4
Beam: 5
Beam: 6
Beam: 7
Beam: 8
Beam: 9
Beam: 10
Beam: 11
Beam: 12
Beam: 13
Beam: 14
Beam: 15
Beam: 16
Beam: 17
Beam: 18
Beam: 19
Beam: 20
Beam: 21
Beam: 22
Beam: 23
Beam: 24
Beam: 25
Beam: 26
Beam: 27
Beam: 28
Beam: 29
Beam: 30
Beam: 31
Beam: 32
Beam: 33
Beam: 34
Beam: 35
Beam: 36
Beam: 37
Beam: 38
Beam: 39
Beam: 40
Beam: 41
Beam: 42
Beam: 43
Beam: 44
Beam: 45
Beam: 46
Beam: 47
Beam: 48
Beam: 49
Beam: 50
Beam: 51
Beam: 52
Beam: 53
Beam: 54
Beam: 55
Beam: 56
Beam: 57
Beam: 58
Beam: 59
Beam: 60
Beam: 61
Beam: 62
Beam: 63
Beam: 64
Beam: 65
Beam: 66
Beam: 67
Beam: 68
Beam: 69
Beam: 70
Beam: 71
smoothSolver:  Solving for Uy, Initial residual = 1.115112514e-09, Final residual = 6.301254848e-20, No Iterations 5
smoothSolver:  Solving for Uz, Initial residual = 2.048852753e-10, Final residual = 2.048852753e-10, No Iterations 0
smoothSolver:  Solving for Temperature, Initial residual = 0.0001041753337, Final residual = 9.927456471e-10, No Iterations 2
Correcting epsilon1, mean residual = 1.104922901e-06, max residual = 0.004785376543
smoothSolver:  Solving for Temperature, Initial residual = 1.299808792e-05, Final residual = 2.210688078e-11, No Iterations 2
Correcting epsilon1, mean residual = 4.424698094e-08, max residual = 0.0002383520478
smoothSolver:  Solving for Temperature, Initial residual = 6.731445637e-07, Final residual = 1.436716541e-11, No Iterations 2
Correcting epsilon1, mean residual = 1.95856252e-09, max residual = 1.271746568e-05
smoothSolver:  Solving for Temperature, Initial residual = 1.825722207e-07, Final residual = 1.408800999e-11, No Iterations 2
Correcting epsilon1, mean residual = 9.685547095e-11, max residual = 8.229626964e-07
GAMG:  Solving for p_rgh, Initial residual = 0.000937166159, Final residual = 8.151537756e-10, No Iterations 16
time step continuity errors : sum local = 5.573272814e-12, global = -6.985601874e-18, cumulative = 1.477760002e-13
GAMG:  Solving for p_rgh, Initial residual = 2.007866429e-05, Final residual = 4.596468779e-10, No Iterations 11
time step continuity errors : sum local = 3.151093259e-12, global = -1.14088475e-16, cumulative = 1.476619118e-13
GAMGPCG:  Solving for p_rgh, Initial residual = 6.012040268e-07, Final residual = 3.146460899e-11, No Iterations 2
time step continuity errors : sum local = 2.187492933e-13, global = 3.176207216e-18, cumulative = 1.47665088e-13
ExecutionTime = 3106.27 s  ClockTime = 3110 s

Courant Number mean: 0.0001958550705 max: 0.1036366953
Interface Courant Number mean: 1.050992298e-05 max: 0.04781715807
deltaT = 8.841190246e-08
Time = 0.0002482790371

smoothSolver:  Solving for alpha.phase1, Initial residual = 8.867499804e-07, Final residual = 5.446884558e-11, No Iterations 1
Phase-1 volume fraction = 0.5999999766  Min(alpha.phase1) = -2.807604935e-15  Max(alpha.phase1) = 1
MULES: Correcting alpha.phase1
MULES: Correcting alpha.phase1
MULES: Correcting alpha.phase1
Phase-1 volume fraction = 0.5999999766  Min(alpha.phase1) = -6.042861096e-13  Max(alpha.phase1) = 1
smoothSolver:  Solving for alpha.phase1, Initial residual = 8.853098571e-07, Final residual = 5.488716196e-11, No Iterations 1
Phase-1 volume fraction = 0.5999999765  Min(alpha.phase1) = -2.803470222e-15  Max(alpha.phase1) = 1
MULES: Correcting alpha.phase1
MULES: Correcting alpha.phase1
MULES: Correcting alpha.phase1
Phase-1 volume fraction = 0.5999999765  Min(alpha.phase1) = -6.168219877e-13  Max(alpha.phase1) = 1
smoothSolver:  Solving for alpha.phase1, Initial residual = 8.838713924e-07, Final residual = 5.530714459e-11, No Iterations 1
Phase-1 volume fraction = 0.5999999765  Min(alpha.phase1) = -2.7993403e-15  Max(alpha.phase1) = 1
MULES: Correcting alpha.phase1
MULES: Correcting alpha.phase1
MULES: Correcting alpha.phase1
Phase-1 volume fraction = 0.5999999765  Min(alpha.phase1) = -6.309236563e-13  Max(alpha.phase1) = 1
iterator_distance 	3.315727928e-06
Beam: 0
Beam: 1
Beam: 2
Beam: 3
Beam: 4
Beam: 5
Beam: 6
Beam: 7
Beam: 8
Beam: 9
Beam: 10
Beam: 11
Beam: 12
Beam: 13
Beam: 14
Beam: 15
Beam: 16
Beam: 17
Beam: 18
Beam: 19
Beam: 20
Beam: 21
Beam: 22
Beam: 23
Beam: 24
Beam: 25
Beam: 26
Beam: 27
Beam: 28
Beam: 29
Beam: 30
Beam: 31
Beam: 32
Beam: 33
Beam: 34
Beam: 35
Beam: 36
Beam: 37
Beam: 38
Beam: 39
Beam: 40
Beam: 41
Beam: 42
Beam: 43
Beam: 44
Beam: 45
Beam: 46
Beam: 47
Beam: 48
Beam: 49
Beam: 50
Beam: 51
Beam: 52
Beam: 53
Beam: 54
Beam: 55
Beam: 56
Beam: 57
Beam: 58
Beam: 59
Beam: 60
Beam: 61
Beam: 62
Beam: 63
Beam: 64
Beam: 65
Beam: 66
Beam: 67
Beam: 68
Beam: 69
Beam: 70
Beam: 71
smoothSolver:  Solving for Uy, Initial residual = 1.13904636e-09, Final residual = 9.810065374e-20, No Iterations 5
smoothSolver:  Solving for Uz, Initial residual = 2.011144329e-10, Final residual = 2.011144329e-10, No Iterations 0
smoothSolver:  Solving for Temperature, Initial residual = 9.993629928e-05, Final residual = 8.788921418e-10, No Iterations 2
Correcting epsilon1, mean residual = 1.0702627e-06, max residual = 0.004623350026
smoothSolver:  Solving for Temperature, Initial residual = 1.2579607e-05, Final residual = 1.87158584e-11, No Iterations 2
Correcting epsilon1, mean residual = 4.158140499e-08, max residual = 0.0002237271212
smoothSolver:  Solving for Temperature, Initial residual = 6.222322159e-07, Final residual = 1.134129837e-11, No Iterations 2
Correcting epsilon1, mean residual = 1.783295916e-09, max residual = 1.155709811e-05
smoothSolver:  Solving for Temperature, Initial residual = 1.587375075e-07, Final residual = 1.098045414e-11, No Iterations 2
Correcting epsilon1, mean residual = 8.534117945e-11, max residual = 7.312931714e-07
GAMG:  Solving for p_rgh, Initial residual = 0.001172953999, Final residual = 5.132161581e-10, No Iterations 16
time step continuity errors : sum local = 3.326542397e-12, global = 3.208627159e-17, cumulative = 1.476971743e-13
GAMG:  Solving for p_rgh, Initial residual = 1.73640354e-05, Final residual = 5.591224095e-10, No Iterations 11
time step continuity errors : sum local = 3.701183928e-12, global = -4.550142389e-17, cumulative = 1.476516728e-13
GAMGPCG:  Solving for p_rgh, Initial residual = 6.752283669e-07, Final residual = 3.195507754e-11, No Iterations 2
time step continuity errors : sum local = 2.147389119e-13, global = -3.155287416e-19, cumulative = 1.476513573e-13
ExecutionTime = 3111.85 s  ClockTime = 3116 s

Courant Number mean: 0.0001914065537 max: 0.1034277258
Interface Courant Number mean: 1.048843824e-05 max: 0.04733162964
deltaT = 8.534812366e-08
Time = 0.0002483643852

smoothSolver:  Solving for alpha.phase1, Initial residual = 8.761659102e-07, Final residual = 5.376008818e-11, No Iterations 1
Phase-1 volume fraction = 0.5999999764  Min(alpha.phase1) = -2.79521828e-15  Max(alpha.phase1) = 1
MULES: Correcting alpha.phase1
MULES: Correcting alpha.phase1
MULES: Correcting alpha.phase1
Phase-1 volume fraction = 0.5999999764  Min(alpha.phase1) = -4.169064889e-13  Max(alpha.phase1) = 1
smoothSolver:  Solving for alpha.phase1, Initial residual = 8.749191242e-07, Final residual = 5.416576189e-11, No Iterations 1
Phase-1 volume fraction = 0.5999999764  Min(alpha.phase1) = -2.791100992e-15  Max(alpha.phase1) = 1
MULES: Correcting alpha.phase1
MULES: Correcting alpha.phase1
MULES: Correcting alpha.phase1
Phase-1 volume fraction = 0.5999999764  Min(alpha.phase1) = -4.300177578e-13  Max(alpha.phase1) = 1
smoothSolver:  Solving for alpha.phase1, Initial residual = 8.736783922e-07, Final residual = 5.457311053e-11, No Iterations 1
Phase-1 volume fraction = 0.5999999763  Min(alpha.phase1) = -2.786988437e-15  Max(alpha.phase1) = 1
MULES: Correcting alpha.phase1
MULES: Correcting alpha.phase1
MULES: Correcting alpha.phase1
Phase-1 volume fraction = 0.5999999763  Min(alpha.phase1) = -4.434282433e-13  Max(alpha.phase1) = 1
iterator_distance 	3.315727928e-06
Beam: 0
Beam: 1
Beam: 2
Beam: 3
Beam: 4
Beam: 5
Beam: 6
Beam: 7
Beam: 8
Beam: 9
Beam: 10
Beam: 11
Beam: 12
Beam: 13
Beam: 14
Beam: 15
Beam: 16
Beam: 17
Beam: 18
Beam: 19
Beam: 20
Beam: 21
Beam: 22
Beam: 23
Beam: 24
Beam: 25
Beam: 26
Beam: 27
Beam: 28
Beam: 29
Beam: 30
Beam: 31
Beam: 32
Beam: 33
Beam: 34
Beam: 35
Beam: 36
Beam: 37
Beam: 38
Beam: 39
Beam: 40
Beam: 41
Beam: 42
Beam: 43
Beam: 44
Beam: 45
Beam: 46
Beam: 47
Beam: 48
Beam: 49
Beam: 50
Beam: 51
Beam: 52
Beam: 53
Beam: 54
Beam: 55
Beam: 56
Beam: 57
Beam: 58
Beam: 59
Beam: 60
Beam: 61
Beam: 62
Beam: 63
Beam: 64
Beam: 65
Beam: 66
Beam: 67
Beam: 68
Beam: 69
Beam: 70
Beam: 71
smoothSolver:  Solving for Uy, Initial residual = 1.16787008e-09, Final residual = 9.663558674e-20, No Iterations 5
smoothSolver:  Solving for Uz, Initial residual = 1.993408344e-10, Final residual = 1.993408344e-10, No Iterations 0
smoothSolver:  Solving for Temperature, Initial residual = 9.613937983e-05, Final residual = 7.845099151e-10, No Iterations 2
Correcting epsilon1, mean residual = 1.037706485e-06, max residual = 0.004471103465
smoothSolver:  Solving for Temperature, Initial residual = 1.217647882e-05, Final residual = 1.56096334e-11, No Iterations 2
Correcting epsilon1, mean residual = 3.915650018e-08, max residual = 0.0002104292723
smoothSolver:  Solving for Temperature, Initial residual = 5.765804143e-07, Final residual = 9.738175413e-12, No Iterations 2
Correcting epsilon1, mean residual = 1.628904543e-09, max residual = 1.053564432e-05
smoothSolver:  Solving for Temperature, Initial residual = 1.39205384e-07, Final residual = 9.460095257e-12, No Iterations 2
Correcting epsilon1, mean residual = 7.552293053e-11, max residual = 6.52350874e-07
GAMG:  Solving for p_rgh, Initial residual = 0.0008828403876, Final residual = 7.985627997e-10, No Iterations 14
time step continuity errors : sum local = 5.057026777e-12, global = -1.735447139e-17, cumulative = 1.476340028e-13
GAMG:  Solving for p_rgh, Initial residual = 1.352731169e-05, Final residual = 9.79712825e-10, No Iterations 10
time step continuity errors : sum local = 6.295036274e-12, global = -1.30713931e-16, cumulative = 1.475032889e-13
GAMGPCG:  Solving for p_rgh, Initial residual = 5.446870231e-07, Final residual = 2.486699964e-11, No Iterations 2
time step continuity errors : sum local = 1.614749376e-13, global = 3.371599413e-18, cumulative = 1.475066605e-13
ExecutionTime = 3117.75 s  ClockTime = 3122 s

Courant Number mean: 0.0001860827592 max: 0.1031534813
Interface Courant Number mean: 9.784610976e-06 max: 0.04607348751
deltaT = 8.26169837e-08
Time = 0.0002484470022

smoothSolver:  Solving for alpha.phase1, Initial residual = 8.693793803e-07, Final residual = 5.340704805e-11, No Iterations 1
Phase-1 volume fraction = 0.5999999763  Min(alpha.phase1) = -2.783021246e-15  Max(alpha.phase1) = 1
MULES: Correcting alpha.phase1
MULES: Correcting alpha.phase1
MULES: Correcting alpha.phase1
Phase-1 volume fraction = 0.5999999763  Min(alpha.phase1) = -2.569393467e-13  Max(alpha.phase1) = 1
smoothSolver:  Solving for alpha.phase1, Initial residual = 8.68185272e-07, Final residual = 5.378160979e-11, No Iterations 1
Phase-1 volume fraction = 0.5999999762  Min(alpha.phase1) = -2.779058282e-15  Max(alpha.phase1) = 1
MULES: Correcting alpha.phase1
MULES: Correcting alpha.phase1
MULES: Correcting alpha.phase1
Phase-1 volume fraction = 0.5999999762  Min(alpha.phase1) = -2.676567642e-13  Max(alpha.phase1) = 1
smoothSolver:  Solving for alpha.phase1, Initial residual = 8.669978741e-07, Final residual = 5.41578309e-11, No Iterations 1
Phase-1 volume fraction = 0.5999999762  Min(alpha.phase1) = -2.775099554e-15  Max(alpha.phase1) = 1
MULES: Correcting alpha.phase1
MULES: Correcting alpha.phase1
MULES: Correcting alpha.phase1
Phase-1 volume fraction = 0.5999999762  Min(alpha.phase1) = -2.786345566e-13  Max(alpha.phase1) = 1
iterator_distance 	3.315727928e-06
Beam: 0
Beam: 1
Beam: 2
Beam: 3
Beam: 4
Beam: 5
Beam: 6
Beam: 7
Beam: 8
Beam: 9
Beam: 10
Beam: 11
Beam: 12
Beam: 13
Beam: 14
Beam: 15
Beam: 16
Beam: 17
Beam: 18
Beam: 19
Beam: 20
Beam: 21
Beam: 22
Beam: 23
Beam: 24
Beam: 25
Beam: 26
Beam: 27
Beam: 28
Beam: 29
Beam: 30
Beam: 31
Beam: 32
Beam: 33
Beam: 34
Beam: 35
Beam: 36
Beam: 37
Beam: 38
Beam: 39
Beam: 40
Beam: 41
Beam: 42
Beam: 43
Beam: 44
Beam: 45
Beam: 46
Beam: 47
Beam: 48
Beam: 49
Beam: 50
Beam: 51
Beam: 52
Beam: 53
Beam: 54
Beam: 55
Beam: 56
Beam: 57
Beam: 58
Beam: 59
Beam: 60
Beam: 61
Beam: 62
Beam: 63
Beam: 64
Beam: 65
Beam: 66
Beam: 67
Beam: 68
Beam: 69
Beam: 70
Beam: 71
smoothSolver:  Solving for Uy, Initial residual = 1.166988789e-09, Final residual = 8.484219573e-20, No Iterations 5
smoothSolver:  Solving for Uz, Initial residual = 1.954533378e-10, Final residual = 1.954533378e-10, No Iterations 0
smoothSolver:  Solving for Temperature, Initial residual = 9.282037672e-05, Final residual = 7.127966721e-10, No Iterations 2
Correcting epsilon1, mean residual = 1.008639562e-06, max residual = 0.004334554566
smoothSolver:  Solving for Temperature, Initial residual = 1.18189493e-05, Final residual = 1.375165235e-11, No Iterations 2
Correcting epsilon1, mean residual = 3.704837996e-08, max residual = 0.0001988625684
smoothSolver:  Solving for Temperature, Initial residual = 5.335540961e-07, Final residual = 8.393192096e-12, No Iterations 2
Correcting epsilon1, mean residual = 1.498456977e-09, max residual = 9.672407546e-06
smoothSolver:  Solving for Temperature, Initial residual = 1.187392305e-07, Final residual = 8.165826415e-12, No Iterations 2
Correcting epsilon1, mean residual = 6.746938154e-11, max residual = 5.871383432e-07
GAMG:  Solving for p_rgh, Initial residual = 0.0008831133581, Final residual = 9.520515466e-10, No Iterations 13
time step continuity errors : sum local = 5.895641772e-12, global = 6.126736656e-17, cumulative = 1.475679279e-13
GAMG:  Solving for p_rgh, Initial residual = 1.186937294e-05, Final residual = 7.695949775e-10, No Iterations 10
time step continuity errors : sum local = 4.863105516e-12, global = -8.485721853e-17, cumulative = 1.474830706e-13
GAMGPCG:  Solving for p_rgh, Initial residual = 5.015693683e-07, Final residual = 3.142334475e-11, No Iterations 2
time step continuity errors : sum local = 1.927461641e-13, global = 2.057777724e-18, cumulative = 1.474851284e-13
ExecutionTime = 3122.71 s  ClockTime = 3127 s

Courant Number mean: 0.0001818984897 max: 0.1029676531
Interface Courant Number mean: 9.599024113e-06 max: 0.04498013471
deltaT = 8.017573535e-08
Time = 0.0002485271779

smoothSolver:  Solving for alpha.phase1, Initial residual = 8.665592051e-07, Final residual = 5.32355154e-11, No Iterations 1
Phase-1 volume fraction = 0.5999999761  Min(alpha.phase1) = -2.771122241e-15  Max(alpha.phase1) = 1
MULES: Correcting alpha.phase1
MULES: Correcting alpha.phase1
MULES: Correcting alpha.phase1
Phase-1 volume fraction = 0.5999999761  Min(alpha.phase1) = -3.773405157e-13  Max(alpha.phase1) = 1
smoothSolver:  Solving for alpha.phase1, Initial residual = 8.653389648e-07, Final residual = 5.358219826e-11, No Iterations 1
Phase-1 volume fraction = 0.5999999761  Min(alpha.phase1) = -2.767149284e-15  Max(alpha.phase1) = 1
MULES: Correcting alpha.phase1
MULES: Correcting alpha.phase1
MULES: Correcting alpha.phase1
Phase-1 volume fraction = 0.5999999761  Min(alpha.phase1) = -3.763667421e-13  Max(alpha.phase1) = 1
smoothSolver:  Solving for alpha.phase1, Initial residual = 8.640918733e-07, Final residual = 5.393023733e-11, No Iterations 1
Phase-1 volume fraction = 0.599999976  Min(alpha.phase1) = -2.763180684e-15  Max(alpha.phase1) = 1
MULES: Correcting alpha.phase1
MULES: Correcting alpha.phase1
MULES: Correcting alpha.phase1
Phase-1 volume fraction = 0.599999976  Min(alpha.phase1) = -3.788042448e-13  Max(alpha.phase1) = 1
iterator_distance 	3.315727928e-06
Beam: 0
Beam: 1
Beam: 2
Beam: 3
Beam: 4
Beam: 5
Beam: 6
Beam: 7
Beam: 8
Beam: 9
Beam: 10
Beam: 11
Beam: 12
Beam: 13
Beam: 14
Beam: 15
Beam: 16
Beam: 17
Beam: 18
Beam: 19
Beam: 20
Beam: 21
Beam: 22
Beam: 23
Beam: 24
Beam: 25
Beam: 26
Beam: 27
Beam: 28
Beam: 29
Beam: 30
Beam: 31
Beam: 32
Beam: 33
Beam: 34
Beam: 35
Beam: 36
Beam: 37
Beam: 38
Beam: 39
Beam: 40
Beam: 41
Beam: 42
Beam: 43
Beam: 44
Beam: 45
Beam: 46
Beam: 47
Beam: 48
Beam: 49
Beam: 50
Beam: 51
Beam: 52
Beam: 53
Beam: 54
Beam: 55
Beam: 56
Beam: 57
Beam: 58
Beam: 59
Beam: 60
Beam: 61
Beam: 62
Beam: 63
Beam: 64
Beam: 65
Beam: 66
Beam: 67
Beam: 68
Beam: 69
Beam: 70
Beam: 71
smoothSolver:  Solving for Uy, Initial residual = 1.136541497e-09, Final residual = 1.482142116e-19, No Iterations 5
smoothSolver:  Solving for Uz, Initial residual = 1.932514757e-10, Final residual = 1.932514757e-10, No Iterations 0
smoothSolver:  Solving for Temperature, Initial residual = 8.971514266e-05, Final residual = 6.186974215e-10, No Iterations 2
Correcting epsilon1, mean residual = 9.826394834e-07, max residual = 0.004211790859
smoothSolver:  Solving for Temperature, Initial residual = 1.14957942e-05, Final residual = 1.173300031e-11, No Iterations 2
Correcting epsilon1, mean residual = 3.520733955e-08, max residual = 0.0001887553121
smoothSolver:  Solving for Temperature, Initial residual = 4.952560543e-07, Final residual = 7.090795153e-12, No Iterations 2
Correcting epsilon1, mean residual = 1.387469945e-09, max residual = 8.937743172e-06
smoothSolver:  Solving for Temperature, Initial residual = 1.006744608e-07, Final residual = 6.874608619e-12, No Iterations 2
Correcting epsilon1, mean residual = 6.091714063e-11, max residual = 5.328024249e-07
GAMG:  Solving for p_rgh, Initial residual = 0.0005930662271, Final residual = 7.437369798e-10, No Iterations 14
time step continuity errors : sum local = 4.475568803e-12, global = 1.212985156e-17, cumulative = 1.474972583e-13
GAMG:  Solving for p_rgh, Initial residual = 1.111661544e-05, Final residual = 7.131653227e-10, No Iterations 10
time step continuity errors : sum local = 4.238456251e-12, global = -8.488387165e-17, cumulative = 1.474123744e-13
GAMGPCG:  Solving for p_rgh, Initial residual = 4.112233894e-07, Final residual = 3.115496917e-11, No Iterations 2
time step continuity errors : sum local = 1.845013352e-13, global = -2.034121035e-18, cumulative = 1.474103403e-13
ExecutionTime = 3127.42 s  ClockTime = 3131 s

Courant Number mean: 0.00017804803 max: 0.1028684436
Interface Courant Number mean: 9.393041667e-06 max: 0.04372107442
deltaT = 7.787113781e-08
Time = 0.000248605049

smoothSolver:  Solving for alpha.phase1, Initial residual = 8.555235066e-07, Final residual = 5.25870947e-11, No Iterations 1
Phase-1 volume fraction = 0.599999976  Min(alpha.phase1) = -2.759174968e-15  Max(alpha.phase1) = 1
MULES: Correcting alpha.phase1
MULES: Correcting alpha.phase1
MULES: Correcting alpha.phase1
Phase-1 volume fraction = 0.599999976  Min(alpha.phase1) = -3.621042726e-13  Max(alpha.phase1) = 1
smoothSolver:  Solving for alpha.phase1, Initial residual = 8.542810231e-07, Final residual = 5.290971699e-11, No Iterations 1
Phase-1 volume fraction = 0.5999999759  Min(alpha.phase1) = -2.755173728e-15  Max(alpha.phase1) = 1
MULES: Correcting alpha.phase1
MULES: Correcting alpha.phase1
MULES: Correcting alpha.phase1
Phase-1 volume fraction = 0.5999999759  Min(alpha.phase1) = -3.690548421e-13  Max(alpha.phase1) = 1
smoothSolver:  Solving for alpha.phase1, Initial residual = 8.530439262e-07, Final residual = 5.32338661e-11, No Iterations 1
Phase-1 volume fraction = 0.5999999759  Min(alpha.phase1) = -2.751176966e-15  Max(alpha.phase1) = 1
MULES: Correcting alpha.phase1
MULES: Correcting alpha.phase1
MULES: Correcting alpha.phase1
Phase-1 volume fraction = 0.5999999759  Min(alpha.phase1) = -3.714010263e-13  Max(alpha.phase1) = 1
iterator_distance 	3.315727928e-06
Beam: 0
Beam: 1
Beam: 2
Beam: 3
Beam: 4
Beam: 5
Beam: 6
Beam: 7
Beam: 8
Beam: 9
Beam: 10
Beam: 11
Beam: 12
Beam: 13
Beam: 14
Beam: 15
Beam: 16
Beam: 17
Beam: 18
Beam: 19
Beam: 20
Beam: 21
Beam: 22
Beam: 23
Beam: 24
Beam: 25
Beam: 26
Beam: 27
Beam: 28
Beam: 29
Beam: 30
Beam: 31
Beam: 32
Beam: 33
Beam: 34
Beam: 35
Beam: 36
Beam: 37
Beam: 38
Beam: 39
Beam: 40
Beam: 41
Beam: 42
Beam: 43
Beam: 44
Beam: 45
Beam: 46
Beam: 47
Beam: 48
Beam: 49
Beam: 50
Beam: 51
Beam: 52
Beam: 53
Beam: 54
Beam: 55
