/*---------------------------------------------------------------------------*\
  =========                 |
  \\      /  F ield         | OpenFOAM: The Open Source CFD Toolbox
   \\    /   O peration     | Website:  https://openfoam.org
    \\  /    A nd           | Version:  6
     \\/     M anipulation  |
\*---------------------------------------------------------------------------*/
Build  : 6-fa1285188035
Exec   : laserAMFoam -parallel
Date   : Jul 07 2022
Time   : 13:32:32
Host   : "e-uxxs4ly5294"
PID    : 12305
I/O    : uncollated
Case   : /home/mbcx7tf3/OpenFOAM/custom_solvers/laserAMFoam/tutorials/Test2
nProcs : 6
Slaves : 
5
(
"e-uxxs4ly5294.12306"
"e-uxxs4ly5294.12307"
"e-uxxs4ly5294.12308"
"e-uxxs4ly5294.12309"
"e-uxxs4ly5294.12310"
)

Pstream initialized with:
    floatTransfer      : 0
    nProcsSimpleSum    : 0
    commsType          : nonBlocking
    polling iterations : 0
sigFpe : Enabling floating point exception trapping (FOAM_SIGFPE).
fileModificationChecking : Monitoring run-time modified files using timeStampMaster (fileModificationSkew 10)
allowSystemOperations : Allowing user-supplied system call operations

// * * * * * * * * * * * * * * * * * * * * * * * * * * * * * * * * * * * * * //
Create time

Create mesh for time = 0


PIMPLE: No convergence criteria found


PIMPLE: Operating solver in PISO mode

Reading field p_rgh

Reading field U

Reading/calculating face flux field phi

Reading transportProperties

Selecting incompressible transport model Newtonian
Selecting incompressible transport model Newtonian
Reading field Temperature

Selecting turbulence model type laminar
Selecting laminar stress model Stokes

Reading g

Reading hRef
Calculating field g.h

No MRF models present

No finite volume options present
GAMGPCG:  Solving for pcorr, Initial residual = 0, Final residual = 0, No Iterations 0
time step continuity errors : sum local = 0, global = 0, cumulative = 0
Courant Number mean: 0 max: 0

Starting time loop

Courant Number mean: 0 max: 0
Interface Courant Number mean: 0 max: 0
deltaT = 1e-07
Time = 1e-07

smoothSolver:  Solving for alpha.phase1, Initial residual = 0, Final residual = 0, No Iterations 0
Phase-1 volume fraction = 0.5  Min(alpha.phase1) = 0  Max(alpha.phase1) = 1
MULES: Correcting alpha.phase1
MULES: Correcting alpha.phase1
MULES: Correcting alpha.phase1
Phase-1 volume fraction = 0.5  Min(alpha.phase1) = 0  Max(alpha.phase1) = 1
smoothSolver:  Solving for alpha.phase1, Initial residual = 0, Final residual = 0, No Iterations 0
Phase-1 volume fraction = 0.5  Min(alpha.phase1) = 0  Max(alpha.phase1) = 1
MULES: Correcting alpha.phase1
MULES: Correcting alpha.phase1
MULES: Correcting alpha.phase1
Phase-1 volume fraction = 0.5  Min(alpha.phase1) = 0  Max(alpha.phase1) = 1
smoothSolver:  Solving for alpha.phase1, Initial residual = 0, Final residual = 0, No Iterations 0
Phase-1 volume fraction = 0.5  Min(alpha.phase1) = 0  Max(alpha.phase1) = 1
MULES: Correcting alpha.phase1
MULES: Correcting alpha.phase1
MULES: Correcting alpha.phase1
Phase-1 volume fraction = 0.5  Min(alpha.phase1) = 0  Max(alpha.phase1) = 1
iterator_distance 	2.486795986e-06
Beam: 0
Beam: 1
Beam: 2
Beam: 3
Beam: 4
Beam: 5
Beam: 6
Beam: 7
Beam: 8
Beam: 9
Beam: 10
Beam: 11
Beam: 12
Beam: 13
Beam: 14
Beam: 15
Beam: 16
Beam: 17
Beam: 18
Beam: 19
Beam: 20
Beam: 21
Beam: 22
Beam: 23
Beam: 24
Beam: 25
Beam: 26
Beam: 27
Beam: 28
Beam: 29
Beam: 30
Beam: 31
Beam: 32
Beam: 33
Beam: 34
Beam: 35
Beam: 36
Beam: 37
Beam: 38
Beam: 39
Beam: 40
Beam: 41
Beam: 42
Beam: 43
Beam: 44
Beam: 45
Beam: 46
Beam: 47
Beam: 48
Beam: 49
Beam: 50
Beam: 51
Beam: 52
Beam: 53
Beam: 54
Beam: 55
Beam: 56
Beam: 57
Beam: 58
Beam: 59
Beam: 60
Beam: 61
Beam: 62
Beam: 63
Beam: 64
Beam: 65
Beam: 66
Beam: 67
Beam: 68
Beam: 69
Beam: 70
Beam: 71
Beam: 72
Beam: 73
Beam: 74
Beam: 75
Beam: 76
Beam: 77
Beam: 78
Beam: 79
Beam: 80
Beam: 81
Beam: 82
Beam: 83
Beam: 84
Beam: 85
Beam: 86
Beam: 87
Beam: 88
Beam: 89
Beam: 90
Beam: 91
Beam: 92
Beam: 93
Beam: 94
Beam: 95
Beam: 96
Beam: 97
Beam: 98
Beam: 99
Beam: 100
Beam: 101
Beam: 102
Beam: 103
Beam: 104
Beam: 105
Beam: 106
Beam: 107
Beam: 108
smoothSolver:  Solving for Uy, Initial residual = 0.8224553682, Final residual = 4.93949847e-17, No Iterations 5
smoothSolver:  Solving for Uz, Initial residual = 5.830287702e-05, Final residual = 3.640333594e-22, No Iterations 5
smoothSolver:  Solving for Temperature, Initial residual = 0.999999999, Final residual = 9.747113052e-10, No Iterations 7
Correcting epsilon1, mean residual = 0, max residual = 0
GAMG:  Solving for p_rgh, Initial residual = 9.000765866e-13, Final residual = 9.000765866e-13, No Iterations 0
time step continuity errors : sum local = 9.000765866e-31, global = 1.048129978e-36, cumulative = 1.048129978e-36
GAMG:  Solving for p_rgh, Initial residual = 9.000765866e-13, Final residual = 9.000765866e-13, No Iterations 0
time step continuity errors : sum local = 9.000765866e-31, global = 1.048129978e-36, cumulative = 2.096259957e-36
GAMGPCG:  Solving for p_rgh, Initial residual = 9.000765866e-13, Final residual = 9.000765866e-13, No Iterations 0
time step continuity errors : sum local = 9.000765866e-31, global = 1.048129978e-36, cumulative = 3.144389935e-36
ExecutionTime = 9.58 s  ClockTime = 10 s

Courant Number mean: 4.550313249e-31 max: 8.686432658e-28
Interface Courant Number mean: 0 max: 0
deltaT = 1e-07
Time = 2e-07

smoothSolver:  Solving for alpha.phase1, Initial residual = 1.411874088e-32, Final residual = 1.411874088e-32, No Iterations 0
Phase-1 volume fraction = 0.5  Min(alpha.phase1) = 0  Max(alpha.phase1) = 1
MULES: Correcting alpha.phase1
MULES: Correcting alpha.phase1
MULES: Correcting alpha.phase1
Phase-1 volume fraction = 0.5  Min(alpha.phase1) = 0  Max(alpha.phase1) = 1
smoothSolver:  Solving for alpha.phase1, Initial residual = 1.411874088e-32, Final residual = 1.411874088e-32, No Iterations 0
Phase-1 volume fraction = 0.5  Min(alpha.phase1) = 0  Max(alpha.phase1) = 1
MULES: Correcting alpha.phase1
MULES: Correcting alpha.phase1
MULES: Correcting alpha.phase1
Phase-1 volume fraction = 0.5  Min(alpha.phase1) = 0  Max(alpha.phase1) = 1
smoothSolver:  Solving for alpha.phase1, Initial residual = 1.411874088e-32, Final residual = 1.411874088e-32, No Iterations 0
Phase-1 volume fraction = 0.5  Min(alpha.phase1) = 0  Max(alpha.phase1) = 1
MULES: Correcting alpha.phase1
MULES: Correcting alpha.phase1
MULES: Correcting alpha.phase1
Phase-1 volume fraction = 0.5  Min(alpha.phase1) = 0  Max(alpha.phase1) = 1
iterator_distance 	2.486795986e-06
Beam: 0
Beam: 1
Beam: 2
Beam: 3
Beam: 4
Beam: 5
Beam: 6
Beam: 7
Beam: 8
Beam: 9
Beam: 10
Beam: 11
Beam: 12
Beam: 13
Beam: 14
Beam: 15
Beam: 16
Beam: 17
Beam: 18
Beam: 19
Beam: 20
Beam: 21
Beam: 22
Beam: 23
Beam: 24
Beam: 25
Beam: 26
Beam: 27
Beam: 28
Beam: 29
Beam: 30
Beam: 31
Beam: 32
Beam: 33
Beam: 34
Beam: 35
Beam: 36
Beam: 37
Beam: 38
Beam: 39
Beam: 40
Beam: 41
Beam: 42
Beam: 43
Beam: 44
Beam: 45
Beam: 46
Beam: 47
Beam: 48
Beam: 49
Beam: 50
Beam: 51
Beam: 52
Beam: 53
Beam: 54
Beam: 55
Beam: 56
Beam: 57
Beam: 58
Beam: 59
Beam: 60
Beam: 61
Beam: 62
Beam: 63
Beam: 64
Beam: 65
Beam: 66
Beam: 67
Beam: 68
Beam: 69
Beam: 70
Beam: 71
Beam: 72
Beam: 73
Beam: 74
Beam: 75
Beam: 76
Beam: 77
Beam: 78
Beam: 79
Beam: 80
Beam: 81
Beam: 82
Beam: 83
Beam: 84
Beam: 85
Beam: 86
Beam: 87
Beam: 88
Beam: 89
Beam: 90
Beam: 91
Beam: 92
Beam: 93
Beam: 94
Beam: 95
Beam: 96
Beam: 97
Beam: 98
Beam: 99
Beam: 100
Beam: 101
Beam: 102
Beam: 103
Beam: 104
Beam: 105
Beam: 106
Beam: 107
Beam: 108
smoothSolver:  Solving for Uy, Initial residual = 0.9995428008, Final residual = 1.148631307e-10, No Iterations 5
smoothSolver:  Solving for Uz, Initial residual = 0.9999999999, Final residual = 7.08171373e-17, No Iterations 5
smoothSolver:  Solving for Temperature, Initial residual = 0.2074855785, Final residual = 3.179100244e-10, No Iterations 5
Correcting epsilon1, mean residual = 0, max residual = 0
GAMG:  Solving for p_rgh, Initial residual = 0.9909563392, Final residual = 6.791457633e-10, No Iterations 37
time step continuity errors : sum local = 7.509633725e-26, global = -2.401345078e-28, cumulative = -2.401345047e-28
GAMG:  Solving for p_rgh, Initial residual = 0.002145465823, Final residual = 8.903710734e-10, No Iterations 18
time step continuity errors : sum local = 4.211468371e-25, global = 6.303860336e-27, cumulative = 6.063725832e-27
GAMGPCG:  Solving for p_rgh, Initial residual = 5.318588052e-06, Final residual = 4.32699934e-10, No Iterations 2
time step continuity errors : sum local = 2.030003272e-25, global = 1.213678671e-29, cumulative = 6.075862618e-27
ExecutionTime = 20.09 s  ClockTime = 20 s

Courant Number mean: 1.522266675e-20 max: 1.598884216e-18
Interface Courant Number mean: 0 max: 0
deltaT = 1e-07
Time = 3e-07

smoothSolver:  Solving for alpha.phase1, Initial residual = 1.136523724e-23, Final residual = 1.136523724e-23, No Iterations 0
Phase-1 volume fraction = 0.5  Min(alpha.phase1) = 0  Max(alpha.phase1) = 1
MULES: Correcting alpha.phase1
MULES: Correcting alpha.phase1
MULES: Correcting alpha.phase1
Phase-1 volume fraction = 0.5  Min(alpha.phase1) = 0  Max(alpha.phase1) = 1
smoothSolver:  Solving for alpha.phase1, Initial residual = 1.136523724e-23, Final residual = 1.136523724e-23, No Iterations 0
Phase-1 volume fraction = 0.5  Min(alpha.phase1) = 0  Max(alpha.phase1) = 1
MULES: Correcting alpha.phase1
MULES: Correcting alpha.phase1
MULES: Correcting alpha.phase1
Phase-1 volume fraction = 0.5  Min(alpha.phase1) = 0  Max(alpha.phase1) = 1
smoothSolver:  Solving for alpha.phase1, Initial residual = 1.136523724e-23, Final residual = 1.136523724e-23, No Iterations 0
Phase-1 volume fraction = 0.5  Min(alpha.phase1) = 0  Max(alpha.phase1) = 1
MULES: Correcting alpha.phase1
MULES: Correcting alpha.phase1
MULES: Correcting alpha.phase1
Phase-1 volume fraction = 0.5  Min(alpha.phase1) = 0  Max(alpha.phase1) = 1
iterator_distance 	2.486795986e-06
Beam: 0
Beam: 1
Beam: 2
Beam: 3
Beam: 4
Beam: 5
Beam: 6
Beam: 7
Beam: 8
Beam: 9
Beam: 10
Beam: 11
Beam: 12
Beam: 13
Beam: 14
Beam: 15
Beam: 16
Beam: 17
Beam: 18
Beam: 19
Beam: 20
Beam: 21
Beam: 22
Beam: 23
Beam: 24
Beam: 25
Beam: 26
Beam: 27
Beam: 28
Beam: 29
Beam: 30
Beam: 31
Beam: 32
Beam: 33
Beam: 34
Beam: 35
Beam: 36
Beam: 37
Beam: 38
Beam: 39
Beam: 40
Beam: 41
Beam: 42
Beam: 43
Beam: 44
Beam: 45
Beam: 46
Beam: 47
Beam: 48
Beam: 49
Beam: 50
Beam: 51
Beam: 52
Beam: 53
Beam: 54
Beam: 55
Beam: 56
Beam: 57
Beam: 58
Beam: 59
Beam: 60
Beam: 61
Beam: 62
Beam: 63
Beam: 64
Beam: 65
Beam: 66
Beam: 67
Beam: 68
Beam: 69
Beam: 70
Beam: 71
Beam: 72
Beam: 73
Beam: 74
Beam: 75
Beam: 76
Beam: 77
Beam: 78
Beam: 79
Beam: 80
Beam: 81
Beam: 82
Beam: 83
Beam: 84
Beam: 85
Beam: 86
Beam: 87
Beam: 88
Beam: 89
Beam: 90
Beam: 91
Beam: 92
Beam: 93
Beam: 94
Beam: 95
Beam: 96
Beam: 97
Beam: 98
Beam: 99
Beam: 100
Beam: 101
Beam: 102
Beam: 103
Beam: 104
Beam: 105
Beam: 106
Beam: 107
smoothSolver:  Solving for Uy, Initial residual = 8.388095235e-06, Final residual = 1.017663156e-15, No Iterations 5
smoothSolver:  Solving for Uz, Initial residual = 0.3128085666, Final residual = 5.6819404e-17, No Iterations 5
smoothSolver:  Solving for Temperature, Initial residual = 0.1139771654, Final residual = 1.705173439e-10, No Iterations 5
Correcting epsilon1, mean residual = 0, max residual = 0
GAMG:  Solving for p_rgh, Initial residual = 0.2112073641, Final residual = 9.288383501e-10, No Iterations 33
time step continuity errors : sum local = 5.538827329e-25, global = 1.847979662e-27, cumulative = 7.92384228e-27
GAMG:  Solving for p_rgh, Initial residual = 0.001176753594, Final residual = 7.950619134e-10, No Iterations 17
time step continuity errors : sum local = 8.09532645e-25, global = -9.507824138e-27, cumulative = -1.583981857e-27
GAMGPCG:  Solving for p_rgh, Initial residual = 2.896385864e-06, Final residual = 2.348349032e-10, No Iterations 2
time step continuity errors : sum local = 2.380585234e-25, global = 8.226795783e-29, cumulative = -1.5017139e-27
ExecutionTime = 30.6 s  ClockTime = 31 s

Courant Number mean: 4.464467478e-20 max: 4.774623645e-18
Interface Courant Number mean: 0 max: 0
deltaT = 1e-07
Time = 4e-07

smoothSolver:  Solving for alpha.phase1, Initial residual = 2.135581193e-23, Final residual = 2.135581193e-23, No Iterations 0
Phase-1 volume fraction = 0.5  Min(alpha.phase1) = 0  Max(alpha.phase1) = 1
MULES: Correcting alpha.phase1
MULES: Correcting alpha.phase1
MULES: Correcting alpha.phase1
Phase-1 volume fraction = 0.5  Min(alpha.phase1) = 0  Max(alpha.phase1) = 1
smoothSolver:  Solving for alpha.phase1, Initial residual = 2.135581193e-23, Final residual = 2.135581193e-23, No Iterations 0
Phase-1 volume fraction = 0.5  Min(alpha.phase1) = 0  Max(alpha.phase1) = 1
MULES: Correcting alpha.phase1
MULES: Correcting alpha.phase1
MULES: Correcting alpha.phase1
Phase-1 volume fraction = 0.5  Min(alpha.phase1) = 0  Max(alpha.phase1) = 1
smoothSolver:  Solving for alpha.phase1, Initial residual = 2.135581193e-23, Final residual = 2.135581193e-23, No Iterations 0
Phase-1 volume fraction = 0.5  Min(alpha.phase1) = 0  Max(alpha.phase1) = 1
MULES: Correcting alpha.phase1
MULES: Correcting alpha.phase1
MULES: Correcting alpha.phase1
Phase-1 volume fraction = 0.5  Min(alpha.phase1) = 0  Max(alpha.phase1) = 1
iterator_distance 	2.486795986e-06
Beam: 0
Beam: 1
Beam: 2
Beam: 3
Beam: 4
Beam: 5
Beam: 6
Beam: 7
Beam: 8
Beam: 9
Beam: 10
Beam: 11
Beam: 12
Beam: 13
Beam: 14
Beam: 15
Beam: 16
Beam: 17
Beam: 18
Beam: 19
Beam: 20
Beam: 21
Beam: 22
Beam: 23
Beam: 24
Beam: 25
Beam: 26
Beam: 27
Beam: 28
Beam: 29
Beam: 30
Beam: 31
Beam: 32
Beam: 33
Beam: 34
Beam: 35
Beam: 36
Beam: 37
Beam: 38
Beam: 39
Beam: 40
Beam: 41
Beam: 42
Beam: 43
Beam: 44
Beam: 45
Beam: 46
Beam: 47
Beam: 48
Beam: 49
Beam: 50
Beam: 51
Beam: 52
Beam: 53
Beam: 54
Beam: 55
Beam: 56
Beam: 57
Beam: 58
Beam: 59
Beam: 60
Beam: 61
Beam: 62
Beam: 63
Beam: 64
Beam: 65
Beam: 66
Beam: 67
Beam: 68
Beam: 69
Beam: 70
Beam: 71
Beam: 72
Beam: 73
Beam: 74
Beam: 75
Beam: 76
Beam: 77
Beam: 78
Beam: 79
Beam: 80
Beam: 81
Beam: 82
Beam: 83
Beam: 84
Beam: 85
Beam: 86
Beam: 87
Beam: 88
Beam: 89
Beam: 90
Beam: 91
Beam: 92
Beam: 93
Beam: 94
Beam: 95
Beam: 96
Beam: 97
Beam: 98
Beam: 99
Beam: 100
Beam: 101
Beam: 102
Beam: 103
Beam: 104
Beam: 105
Beam: 106
Beam: 107
Beam: 108
smoothSolver:  Solving for Uy, Initial residual = 4.511212896e-06, Final residual = 5.749333073e-16, No Iterations 5
smoothSolver:  Solving for Uz, Initial residual = 0.1873701514, Final residual = 4.764048255e-17, No Iterations 5
smoothSolver:  Solving for Temperature, Initial residual = 0.0784608771, Final residual = 1.213348932e-10, No Iterations 5
Correcting epsilon1, mean residual = 0, max residual = 0
GAMG:  Solving for p_rgh, Initial residual = 0.1117068977, Final residual = 7.135644265e-10, No Iterations 32
time step continuity errors : sum local = 8.143020168e-25, global = -4.303047025e-27, cumulative = -5.804760925e-27
GAMG:  Solving for p_rgh, Initial residual = 0.0007938302046, Final residual = 8.468874256e-10, No Iterations 16
time step continuity errors : sum local = 1.331801798e-24, global = 1.831499567e-26, cumulative = 1.251023474e-26
GAMGPCG:  Solving for p_rgh, Initial residual = 1.944739107e-06, Final residual = 1.562076546e-10, No Iterations 2
time step continuity errors : sum local = 2.449203501e-25, global = 4.235074284e-28, cumulative = 1.293374217e-26
ExecutionTime = 42.3 s  ClockTime = 43 s

Courant Number mean: 9.242532072e-20 max: 9.506147489e-18
Interface Courant Number mean: 0 max: 0
deltaT = 1e-07
Time = 5e-07

smoothSolver:  Solving for alpha.phase1, Initial residual = 3.117959965e-23, Final residual = 3.117959965e-23, No Iterations 0
Phase-1 volume fraction = 0.5  Min(alpha.phase1) = 0  Max(alpha.phase1) = 1
MULES: Correcting alpha.phase1
MULES: Correcting alpha.phase1
MULES: Correcting alpha.phase1
Phase-1 volume fraction = 0.5  Min(alpha.phase1) = 0  Max(alpha.phase1) = 1
smoothSolver:  Solving for alpha.phase1, Initial residual = 3.117959965e-23, Final residual = 3.117959965e-23, No Iterations 0
Phase-1 volume fraction = 0.5  Min(alpha.phase1) = 0  Max(alpha.phase1) = 1
MULES: Correcting alpha.phase1
MULES: Correcting alpha.phase1
MULES: Correcting alpha.phase1
Phase-1 volume fraction = 0.5  Min(alpha.phase1) = 0  Max(alpha.phase1) = 1
smoothSolver:  Solving for alpha.phase1, Initial residual = 3.117959965e-23, Final residual = 3.117959965e-23, No Iterations 0
Phase-1 volume fraction = 0.5  Min(alpha.phase1) = 0  Max(alpha.phase1) = 1
MULES: Correcting alpha.phase1
MULES: Correcting alpha.phase1
MULES: Correcting alpha.phase1
Phase-1 volume fraction = 0.5  Min(alpha.phase1) = 0  Max(alpha.phase1) = 1
iterator_distance 	2.486795986e-06
Beam: 0
Beam: 1
Beam: 2
Beam: 3
Beam: 4
Beam: 5
Beam: 6
Beam: 7
Beam: 8
Beam: 9
Beam: 10
Beam: 11
Beam: 12
Beam: 13
Beam: 14
Beam: 15
Beam: 16
Beam: 17
Beam: 18
Beam: 19
Beam: 20
Beam: 21
Beam: 22
Beam: 23
Beam: 24
Beam: 25
Beam: 26
Beam: 27
Beam: 28
Beam: 29
Beam: 30
Beam: 31
Beam: 32
Beam: 33
Beam: 34
Beam: 35
Beam: 36
Beam: 37
Beam: 38
Beam: 39
Beam: 40
Beam: 41
Beam: 42
Beam: 43
Beam: 44
Beam: 45
Beam: 46
Beam: 47
Beam: 48
Beam: 49
Beam: 50
Beam: 51
Beam: 52
Beam: 53
Beam: 54
Beam: 55
Beam: 56
Beam: 57
Beam: 58
Beam: 59
Beam: 60
Beam: 61
Beam: 62
Beam: 63
Beam: 64
Beam: 65
Beam: 66
Beam: 67
Beam: 68
Beam: 69
Beam: 70
Beam: 71
Beam: 72
Beam: 73
Beam: 74
Beam: 75
Beam: 76
Beam: 77
Beam: 78
Beam: 79
Beam: 80
Beam: 81
Beam: 82
Beam: 83
Beam: 84
Beam: 85
Beam: 86
Beam: 87
Beam: 88
Beam: 89
Beam: 90
Beam: 91
Beam: 92
Beam: 93
Beam: 94
Beam: 95
Beam: 96
Beam: 97
Beam: 98
Beam: 99
Beam: 100
Beam: 101
Beam: 102
Beam: 103
Beam: 104
Beam: 105
Beam: 106
Beam: 107
Beam: 108
smoothSolver:  Solving for Uy, Initial residual = 3.088569401e-06, Final residual = 4.140269698e-16, No Iterations 5
smoothSolver:  Solving for Uz, Initial residual = 0.1329203024, Final residual = 4.785370016e-17, No Iterations 5
smoothSolver:  Solving for Temperature, Initial residual = 0.05978758547, Final residual = 8.95853974e-11, No Iterations 5
Correcting epsilon1, mean residual = 0, max residual = 0
GAMG:  Solving for p_rgh, Initial residual = 0.07477714178, Final residual = 7.604385475e-10, No Iterations 31
time step continuity errors : sum local = 1.288661426e-24, global = 7.454906372e-27, cumulative = 2.038864855e-26
GAMG:  Solving for p_rgh, Initial residual = 0.0006002472281, Final residual = 6.459708432e-10, No Iterations 16
time step continuity errors : sum local = 1.374685502e-24, global = 1.94312148e-26, cumulative = 3.981986335e-26
GAMGPCG:  Solving for p_rgh, Initial residual = 1.464276199e-06, Final residual = 1.190567426e-10, No Iterations 2
time step continuity errors : sum local = 2.527810248e-25, global = 4.815610281e-28, cumulative = 4.030142437e-26
ExecutionTime = 54.44 s  ClockTime = 55 s

Courant Number mean: 1.60157873e-19 max: 1.577203824e-17
Interface Courant Number mean: 0 max: 0
deltaT = 1e-07
Time = 6e-07

smoothSolver:  Solving for alpha.phase1, Initial residual = 4.09867928e-23, Final residual = 4.09867928e-23, No Iterations 0
Phase-1 volume fraction = 0.5  Min(alpha.phase1) = 0  Max(alpha.phase1) = 1
MULES: Correcting alpha.phase1
MULES: Correcting alpha.phase1
MULES: Correcting alpha.phase1
Phase-1 volume fraction = 0.5  Min(alpha.phase1) = 0  Max(alpha.phase1) = 1
smoothSolver:  Solving for alpha.phase1, Initial residual = 4.09867928e-23, Final residual = 4.09867928e-23, No Iterations 0
Phase-1 volume fraction = 0.5  Min(alpha.phase1) = 0  Max(alpha.phase1) = 1
MULES: Correcting alpha.phase1
MULES: Correcting alpha.phase1
MULES: Correcting alpha.phase1
Phase-1 volume fraction = 0.5  Min(alpha.phase1) = 0  Max(alpha.phase1) = 1
smoothSolver:  Solving for alpha.phase1, Initial residual = 4.09867928e-23, Final residual = 4.09867928e-23, No Iterations 0
Phase-1 volume fraction = 0.5  Min(alpha.phase1) = 0  Max(alpha.phase1) = 1
MULES: Correcting alpha.phase1
MULES: Correcting alpha.phase1
MULES: Correcting alpha.phase1
Phase-1 volume fraction = 0.5  Min(alpha.phase1) = 0  Max(alpha.phase1) = 1
iterator_distance 	2.486795986e-06
Beam: 0
Beam: 1
Beam: 2
Beam: 3
Beam: 4
Beam: 5
Beam: 6
Beam: 7
Beam: 8
Beam: 9
Beam: 10
Beam: 11
Beam: 12
Beam: 13
Beam: 14
Beam: 15
Beam: 16
Beam: 17
Beam: 18
Beam: 19
Beam: 20
Beam: 21
Beam: 22
Beam: 23
Beam: 24
Beam: 25
Beam: 26
Beam: 27
Beam: 28
Beam: 29
Beam: 30
Beam: 31
Beam: 32
Beam: 33
Beam: 34
Beam: 35
Beam: 36
Beam: 37
Beam: 38
Beam: 39
Beam: 40
Beam: 41
Beam: 42
Beam: 43
Beam: 44
Beam: 45
Beam: 46
Beam: 47
Beam: 48
Beam: 49
Beam: 50
Beam: 51
Beam: 52
Beam: 53
Beam: 54
Beam: 55
Beam: 56
Beam: 57
Beam: 58
Beam: 59
Beam: 60
Beam: 61
Beam: 62
Beam: 63
Beam: 64
Beam: 65
Beam: 66
Beam: 67
Beam: 68
Beam: 69
Beam: 70
Beam: 71
Beam: 72
Beam: 73
Beam: 74
Beam: 75
Beam: 76
Beam: 77
Beam: 78
Beam: 79
Beam: 80
Beam: 81
Beam: 82
Beam: 83
Beam: 84
Beam: 85
Beam: 86
Beam: 87
Beam: 88
Beam: 89
Beam: 90
Beam: 91
Beam: 92
Beam: 93
Beam: 94
Beam: 95
Beam: 96
Beam: 97
Beam: 98
Beam: 99
Beam: 100
Beam: 101
Beam: 102
Beam: 103
Beam: 104
Beam: 105
Beam: 106
Beam: 107
smoothSolver:  Solving for Uy, Initial residual = 2.352413448e-06, Final residual = 3.312533043e-16, No Iterations 5
smoothSolver:  Solving for Uz, Initial residual = 0.1023473441, Final residual = 4.890525435e-17, No Iterations 5
smoothSolver:  Solving for Temperature, Initial residual = 0.04826452552, Final residual = 6.926133884e-11, No Iterations 5
Correcting epsilon1, mean residual = 0, max residual = 0
GAMG:  Solving for p_rgh, Initial residual = 0.05584435113, Final residual = 9.219866545e-10, No Iterations 30
time step continuity errors : sum local = 2.073336633e-24, global = -1.184407541e-26, cumulative = 2.845734896e-26
GAMG:  Solving for p_rgh, Initial residual = 0.0004854322256, Final residual = 8.631029269e-10, No Iterations 15
time step continuity errors : sum local = 2.315389443e-24, global = -2.397249206e-26, cumulative = 4.484856895e-27
GAMGPCG:  Solving for p_rgh, Initial residual = 1.179498604e-06, Final residual = 9.390667411e-11, No Iterations 2
time step continuity errors : sum local = 2.51467785e-25, global = 3.153952877e-28, cumulative = 4.800252183e-27
ExecutionTime = 65.32 s  ClockTime = 66 s

Courant Number mean: 2.498167925e-19 max: 2.355156274e-17
Interface Courant Number mean: 0 max: 0
deltaT = 1e-07
Time = 7e-07

smoothSolver:  Solving for alpha.phase1, Initial residual = 5.038331926e-23, Final residual = 5.038331926e-23, No Iterations 0
Phase-1 volume fraction = 0.5  Min(alpha.phase1) = 0  Max(alpha.phase1) = 1
MULES: Correcting alpha.phase1
MULES: Correcting alpha.phase1
MULES: Correcting alpha.phase1
Phase-1 volume fraction = 0.5  Min(alpha.phase1) = 0  Max(alpha.phase1) = 1
smoothSolver:  Solving for alpha.phase1, Initial residual = 5.038331926e-23, Final residual = 5.038331926e-23, No Iterations 0
Phase-1 volume fraction = 0.5  Min(alpha.phase1) = 0  Max(alpha.phase1) = 1
MULES: Correcting alpha.phase1
MULES: Correcting alpha.phase1
MULES: Correcting alpha.phase1
Phase-1 volume fraction = 0.5  Min(alpha.phase1) = 0  Max(alpha.phase1) = 1
smoothSolver:  Solving for alpha.phase1, Initial residual = 5.038331926e-23, Final residual = 5.038331926e-23, No Iterations 0
Phase-1 volume fraction = 0.5  Min(alpha.phase1) = 0  Max(alpha.phase1) = 1
MULES: Correcting alpha.phase1
MULES: Correcting alpha.phase1
MULES: Correcting alpha.phase1
Phase-1 volume fraction = 0.5  Min(alpha.phase1) = 0  Max(alpha.phase1) = 1
iterator_distance 	2.486795986e-06
Beam: 0
Beam: 1
Beam: 2
Beam: 3
Beam: 4
Beam: 5
Beam: 6
Beam: 7
Beam: 8
Beam: 9
Beam: 10
Beam: 11
Beam: 12
Beam: 13
Beam: 14
Beam: 15
Beam: 16
Beam: 17
Beam: 18
Beam: 19
Beam: 20
Beam: 21
Beam: 22
Beam: 23
Beam: 24
Beam: 25
Beam: 26
Beam: 27
Beam: 28
Beam: 29
Beam: 30
Beam: 31
Beam: 32
Beam: 33
Beam: 34
Beam: 35
Beam: 36
Beam: 37
Beam: 38
Beam: 39
Beam: 40
Beam: 41
Beam: 42
Beam: 43
Beam: 44
Beam: 45
Beam: 46
Beam: 47
Beam: 48
Beam: 49
Beam: 50
Beam: 51
Beam: 52
Beam: 53
Beam: 54
Beam: 55
Beam: 56
Beam: 57
Beam: 58
Beam: 59
Beam: 60
Beam: 61
Beam: 62
Beam: 63
Beam: 64
Beam: 65
Beam: 66
Beam: 67
Beam: 68
Beam: 69
Beam: 70
Beam: 71
Beam: 72
Beam: 73
Beam: 74
Beam: 75
Beam: 76
Beam: 77
Beam: 78
Beam: 79
Beam: 80
Beam: 81
Beam: 82
Beam: 83
Beam: 84
Beam: 85
Beam: 86
Beam: 87
Beam: 88
Beam: 89
Beam: 90
Beam: 91
Beam: 92
Beam: 93
Beam: 94
Beam: 95
Beam: 96
Beam: 97
Beam: 98
Beam: 99
Beam: 100
Beam: 101
Beam: 102
Beam: 103
Beam: 104
Beam: 105
Beam: 106
Beam: 107
Beam: 108
smoothSolver:  Solving for Uy, Initial residual = 1.911650745e-06, Final residual = 2.804358925e-16, No Iterations 5
smoothSolver:  Solving for Uz, Initial residual = 0.08257197863, Final residual = 4.786944751e-17, No Iterations 5
smoothSolver:  Solving for Temperature, Initial residual = 0.04047648451, Final residual = 6.006138381e-11, No Iterations 5
Correcting epsilon1, mean residual = 0, max residual = 0
GAMG:  Solving for p_rgh, Initial residual = 0.0443836499, Final residual = 7.949444855e-10, No Iterations 30
time step continuity errors : sum local = 2.227596904e-24, global = -1.480796812e-26, cumulative = -1.000771594e-26
GAMG:  Solving for p_rgh, Initial residual = 0.0004096245965, Final residual = 7.357217606e-10, No Iterations 15
time step continuity errors : sum local = 2.381014135e-24, global = -2.546706219e-26, cumulative = -3.547477813e-26
GAMGPCG:  Solving for p_rgh, Initial residual = 9.915774462e-07, Final residual = 8.010171785e-11, No Iterations 2
time step continuity errors : sum local = 2.588459523e-25, global = 3.919583997e-28, cumulative = -3.508281973e-26
ExecutionTime = 75.44 s  ClockTime = 76 s

Courant Number mean: 3.633954236e-19 max: 3.28244479e-17
Interface Courant Number mean: 0 max: 0
deltaT = 1e-07
Time = 8e-07

smoothSolver:  Solving for alpha.phase1, Initial residual = 5.971482665e-23, Final residual = 5.971482665e-23, No Iterations 0
Phase-1 volume fraction = 0.5  Min(alpha.phase1) = 0  Max(alpha.phase1) = 1
MULES: Correcting alpha.phase1
MULES: Correcting alpha.phase1
MULES: Correcting alpha.phase1
Phase-1 volume fraction = 0.5  Min(alpha.phase1) = 0  Max(alpha.phase1) = 1
smoothSolver:  Solving for alpha.phase1, Initial residual = 5.971482665e-23, Final residual = 5.971482665e-23, No Iterations 0
Phase-1 volume fraction = 0.5  Min(alpha.phase1) = 0  Max(alpha.phase1) = 1
MULES: Correcting alpha.phase1
MULES: Correcting alpha.phase1
MULES: Correcting alpha.phase1
Phase-1 volume fraction = 0.5  Min(alpha.phase1) = 0  Max(alpha.phase1) = 1
smoothSolver:  Solving for alpha.phase1, Initial residual = 5.971482665e-23, Final residual = 5.971482665e-23, No Iterations 0
Phase-1 volume fraction = 0.5  Min(alpha.phase1) = 0  Max(alpha.phase1) = 1
MULES: Correcting alpha.phase1
MULES: Correcting alpha.phase1
MULES: Correcting alpha.phase1
Phase-1 volume fraction = 0.5  Min(alpha.phase1) = 0  Max(alpha.phase1) = 1
iterator_distance 	2.486795986e-06
Beam: 0
Beam: 1
Beam: 2
Beam: 3
Beam: 4
Beam: 5
Beam: 6
Beam: 7
Beam: 8
Beam: 9
Beam: 10
Beam: 11
Beam: 12
Beam: 13
Beam: 14
Beam: 15
Beam: 16
Beam: 17
Beam: 18
Beam: 19
Beam: 20
Beam: 21
Beam: 22
Beam: 23
Beam: 24
Beam: 25
Beam: 26
Beam: 27
Beam: 28
Beam: 29
Beam: 30
Beam: 31
Beam: 32
Beam: 33
Beam: 34
Beam: 35
Beam: 36
Beam: 37
Beam: 38
Beam: 39
Beam: 40
Beam: 41
Beam: 42
Beam: 43
Beam: 44
Beam: 45
Beam: 46
Beam: 47
Beam: 48
Beam: 49
Beam: 50
Beam: 51
Beam: 52
Beam: 53
Beam: 54
Beam: 55
Beam: 56
Beam: 57
Beam: 58
Beam: 59
Beam: 60
Beam: 61
Beam: 62
Beam: 63
Beam: 64
Beam: 65
Beam: 66
Beam: 67
Beam: 68
Beam: 69
Beam: 70
Beam: 71
Beam: 72
Beam: 73
Beam: 74
Beam: 75
Beam: 76
Beam: 77
Beam: 78
Beam: 79
Beam: 80
Beam: 81
Beam: 82
Beam: 83
Beam: 84
Beam: 85
Beam: 86
Beam: 87
Beam: 88
Beam: 89
Beam: 90
Beam: 91
Beam: 92
Beam: 93
Beam: 94
Beam: 95
Beam: 96
Beam: 97
Beam: 98
Beam: 99
Beam: 100
Beam: 101
Beam: 102
Beam: 103
Beam: 104
Beam: 105
Beam: 106
Beam: 107
smoothSolver:  Solving for Uy, Initial residual = 1.615903978e-06, Final residual = 2.466656283e-16, No Iterations 5
smoothSolver:  Solving for Uz, Initial residual = 0.06859994565, Final residual = 4.294065949e-17, No Iterations 5
smoothSolver:  Solving for Temperature, Initial residual = 0.03482799682, Final residual = 5.186717955e-11, No Iterations 5
Correcting epsilon1, mean residual = 0, max residual = 0
GAMG:  Solving for p_rgh, Initial residual = 0.03673305506, Final residual = 6.982687055e-10, No Iterations 30
time step continuity errors : sum local = 2.342461788e-24, global = -1.641413694e-26, cumulative = -5.149695666e-26
GAMG:  Solving for p_rgh, Initial residual = 0.000356007025, Final residual = 6.469183738e-10, No Iterations 15
time step continuity errors : sum local = 2.451299314e-24, global = -2.695182055e-26, cumulative = -7.844877722e-26
GAMGPCG:  Solving for p_rgh, Initial residual = 8.585435818e-07, Final residual = 9.558367641e-10, No Iterations 1
time step continuity errors : sum local = 3.617134518e-24, global = -5.223023643e-27, cumulative = -8.367180086e-26
ExecutionTime = 86.89 s  ClockTime = 88 s

Courant Number mean: 5.029113024e-19 max: 4.357086855e-17
Interface Courant Number mean: 0 max: 0
deltaT = 1e-07
Time = 9e-07

smoothSolver:  Solving for alpha.phase1, Initial residual = 6.927678183e-23, Final residual = 6.927678183e-23, No Iterations 0
Phase-1 volume fraction = 0.5  Min(alpha.phase1) = 0  Max(alpha.phase1) = 1
MULES: Correcting alpha.phase1
MULES: Correcting alpha.phase1
MULES: Correcting alpha.phase1
Phase-1 volume fraction = 0.5  Min(alpha.phase1) = 0  Max(alpha.phase1) = 1
smoothSolver:  Solving for alpha.phase1, Initial residual = 6.927678183e-23, Final residual = 6.927678183e-23, No Iterations 0
Phase-1 volume fraction = 0.5  Min(alpha.phase1) = 0  Max(alpha.phase1) = 1
MULES: Correcting alpha.phase1
MULES: Correcting alpha.phase1
MULES: Correcting alpha.phase1
Phase-1 volume fraction = 0.5  Min(alpha.phase1) = 0  Max(alpha.phase1) = 1
smoothSolver:  Solving for alpha.phase1, Initial residual = 6.927678183e-23, Final residual = 6.927678183e-23, No Iterations 0
Phase-1 volume fraction = 0.5  Min(alpha.phase1) = 0  Max(alpha.phase1) = 1
MULES: Correcting alpha.phase1
MULES: Correcting alpha.phase1
MULES: Correcting alpha.phase1
Phase-1 volume fraction = 0.5  Min(alpha.phase1) = 0  Max(alpha.phase1) = 1
iterator_distance 	2.486795986e-06
Beam: 0
Beam: 1
Beam: 2
Beam: 3
Beam: 4
Beam: 5
Beam: 6
Beam: 7
Beam: 8
Beam: 9
Beam: 10
Beam: 11
Beam: 12
Beam: 13
Beam: 14
Beam: 15
Beam: 16
Beam: 17
Beam: 18
Beam: 19
Beam: 20
Beam: 21
Beam: 22
Beam: 23
Beam: 24
Beam: 25
Beam: 26
Beam: 27
Beam: 28
Beam: 29
Beam: 30
Beam: 31
Beam: 32
Beam: 33
Beam: 34
Beam: 35
Beam: 36
Beam: 37
Beam: 38
Beam: 39
Beam: 40
Beam: 41
Beam: 42
Beam: 43
Beam: 44
Beam: 45
Beam: 46
Beam: 47
Beam: 48
Beam: 49
Beam: 50
Beam: 51
Beam: 52
Beam: 53
Beam: 54
Beam: 55
Beam: 56
Beam: 57
Beam: 58
Beam: 59
Beam: 60
Beam: 61
Beam: 62
Beam: 63
Beam: 64
Beam: 65
Beam: 66
Beam: 67
Beam: 68
Beam: 69
Beam: 70
Beam: 71
Beam: 72
Beam: 73
Beam: 74
Beam: 75
Beam: 76
Beam: 77
Beam: 78
Beam: 79
Beam: 80
Beam: 81
Beam: 82
Beam: 83
Beam: 84
Beam: 85
Beam: 86
Beam: 87
Beam: 88
Beam: 89
Beam: 90
Beam: 91
Beam: 92
Beam: 93
Beam: 94
Beam: 95
Beam: 96
Beam: 97
Beam: 98
Beam: 99
Beam: 100
Beam: 101
Beam: 102
Beam: 103
Beam: 104
Beam: 105
Beam: 106
Beam: 107
Beam: 108
smoothSolver:  Solving for Uy, Initial residual = 1.400281999e-06, Final residual = 2.211215399e-16, No Iterations 5
smoothSolver:  Solving for Uz, Initial residual = 0.05818872185, Final residual = 4.01569206e-17, No Iterations 5
smoothSolver:  Solving for Temperature, Initial residual = 0.03057362879, Final residual = 4.581005653e-11, No Iterations 5
Correcting epsilon1, mean residual = 0, max residual = 0
GAMG:  Solving for p_rgh, Initial residual = 0.03124403221, Final residual = 9.13142181e-10, No Iterations 29
time step continuity errors : sum local = 3.56698505e-24, global = 2.077917971e-26, cumulative = -6.289262115e-26
GAMG:  Solving for p_rgh, Initial residual = 0.0003158258905, Final residual = 9.034136653e-10, No Iterations 14
time step continuity errors : sum local = 3.92239838e-24, global = 4.06297791e-26, cumulative = -2.226284205e-26
GAMGPCG:  Solving for p_rgh, Initial residual = 7.592234698e-07, Final residual = 8.212356031e-10, No Iterations 1
time step continuity errors : sum local = 3.560873838e-24, global = -9.061459375e-27, cumulative = -3.132430143e-26
ExecutionTime = 97.26 s  ClockTime = 99 s

Courant Number mean: 6.703321722e-19 max: 5.577145565e-17
Interface Courant Number mean: 0 max: 0
deltaT = 1e-07
Time = 1e-06

smoothSolver:  Solving for alpha.phase1, Initial residual = 7.865015287e-23, Final residual = 7.865015287e-23, No Iterations 0
Phase-1 volume fraction = 0.5  Min(alpha.phase1) = 0  Max(alpha.phase1) = 1
MULES: Correcting alpha.phase1
MULES: Correcting alpha.phase1
MULES: Correcting alpha.phase1
Phase-1 volume fraction = 0.5  Min(alpha.phase1) = 0  Max(alpha.phase1) = 1
smoothSolver:  Solving for alpha.phase1, Initial residual = 7.865015287e-23, Final residual = 7.865015287e-23, No Iterations 0
Phase-1 volume fraction = 0.5  Min(alpha.phase1) = 0  Max(alpha.phase1) = 1
MULES: Correcting alpha.phase1
MULES: Correcting alpha.phase1
MULES: Correcting alpha.phase1
Phase-1 volume fraction = 0.5  Min(alpha.phase1) = 0  Max(alpha.phase1) = 1
smoothSolver:  Solving for alpha.phase1, Initial residual = 7.865015287e-23, Final residual = 7.865015287e-23, No Iterations 0
Phase-1 volume fraction = 0.5  Min(alpha.phase1) = 0  Max(alpha.phase1) = 1
MULES: Correcting alpha.phase1
MULES: Correcting alpha.phase1
MULES: Correcting alpha.phase1
Phase-1 volume fraction = 0.5  Min(alpha.phase1) = 0  Max(alpha.phase1) = 1
iterator_distance 	2.486795986e-06
Beam: 0
Beam: 1
Beam: 2
Beam: 3
Beam: 4
Beam: 5
Beam: 6
Beam: 7
Beam: 8
Beam: 9
Beam: 10
Beam: 11
Beam: 12
Beam: 13
Beam: 14
Beam: 15
Beam: 16
Beam: 17
Beam: 18
Beam: 19
Beam: 20
Beam: 21
Beam: 22
Beam: 23
Beam: 24
Beam: 25
Beam: 26
Beam: 27
Beam: 28
Beam: 29
Beam: 30
Beam: 31
Beam: 32
Beam: 33
Beam: 34
Beam: 35
Beam: 36
Beam: 37
Beam: 38
Beam: 39
Beam: 40
Beam: 41
Beam: 42
Beam: 43
Beam: 44
Beam: 45
Beam: 46
Beam: 47
Beam: 48
Beam: 49
Beam: 50
Beam: 51
Beam: 52
Beam: 53
Beam: 54
Beam: 55
Beam: 56
Beam: 57
Beam: 58
Beam: 59
Beam: 60
Beam: 61
Beam: 62
Beam: 63
Beam: 64
Beam: 65
Beam: 66
Beam: 67
Beam: 68
Beam: 69
Beam: 70
Beam: 71
Beam: 72
Beam: 73
Beam: 74
Beam: 75
Beam: 76
Beam: 77
Beam: 78
Beam: 79
Beam: 80
Beam: 81
Beam: 82
Beam: 83
Beam: 84
Beam: 85
Beam: 86
Beam: 87
Beam: 88
Beam: 89
Beam: 90
Beam: 91
Beam: 92
Beam: 93
Beam: 94
Beam: 95
Beam: 96
Beam: 97
Beam: 98
Beam: 99
Beam: 100
Beam: 101
Beam: 102
Beam: 103
Beam: 104
Beam: 105
Beam: 106
Beam: 107
Beam: 108
smoothSolver:  Solving for Uy, Initial residual = 1.238350028e-06, Final residual = 2.044974053e-16, No Iterations 5
smoothSolver:  Solving for Uz, Initial residual = 0.05005628256, Final residual = 4.160084924e-17, No Iterations 5
smoothSolver:  Solving for Temperature, Initial residual = 0.02723572041, Final residual = 4.058707918e-11, No Iterations 5
Correcting epsilon1, mean residual = 0, max residual = 0
GAMG:  Solving for p_rgh, Initial residual = 0.02713459419, Final residual = 8.231376285e-10, No Iterations 29
time step continuity errors : sum local = 3.668634574e-24, global = 2.365836349e-26, cumulative = -7.665937939e-27
GAMG:  Solving for p_rgh, Initial residual = 0.0002847989274, Final residual = 8.256242846e-10, No Iterations 14
time step continuity errors : sum local = 4.039592153e-24, global = 4.151669173e-26, cumulative = 3.385075379e-26
GAMGPCG:  Solving for p_rgh, Initial residual = 6.82090305e-07, Final residual = 7.37402052e-10, No Iterations 1
time step continuity errors : sum local = 3.603612436e-24, global = -8.999231297e-27, cumulative = 2.48515225e-26
ExecutionTime = 107.6 s  ClockTime = 109 s

Courant Number mean: 8.67707734e-19 max: 7.289332375e-17
Interface Courant Number mean: 0 max: 0
deltaT = 1e-07
Time = 1.1e-06

smoothSolver:  Solving for alpha.phase1, Initial residual = 8.806062856e-23, Final residual = 8.806062856e-23, No Iterations 0
Phase-1 volume fraction = 0.5  Min(alpha.phase1) = 0  Max(alpha.phase1) = 1
MULES: Correcting alpha.phase1
MULES: Correcting alpha.phase1
MULES: Correcting alpha.phase1
Phase-1 volume fraction = 0.5  Min(alpha.phase1) = 0  Max(alpha.phase1) = 1
smoothSolver:  Solving for alpha.phase1, Initial residual = 8.806062856e-23, Final residual = 8.806062856e-23, No Iterations 0
Phase-1 volume fraction = 0.5  Min(alpha.phase1) = 0  Max(alpha.phase1) = 1
MULES: Correcting alpha.phase1
MULES: Correcting alpha.phase1
MULES: Correcting alpha.phase1
Phase-1 volume fraction = 0.5  Min(alpha.phase1) = 0  Max(alpha.phase1) = 1
smoothSolver:  Solving for alpha.phase1, Initial residual = 8.806062856e-23, Final residual = 8.806062856e-23, No Iterations 0
Phase-1 volume fraction = 0.5  Min(alpha.phase1) = 0  Max(alpha.phase1) = 1
MULES: Correcting alpha.phase1
MULES: Correcting alpha.phase1
MULES: Correcting alpha.phase1
Phase-1 volume fraction = 0.5  Min(alpha.phase1) = 0  Max(alpha.phase1) = 1
iterator_distance 	2.486795986e-06
Beam: 0
Beam: 1
Beam: 2
Beam: 3
Beam: 4
Beam: 5
Beam: 6
Beam: 7
Beam: 8
Beam: 9
Beam: 10
Beam: 11
Beam: 12
Beam: 13
Beam: 14
Beam: 15
Beam: 16
Beam: 17
Beam: 18
Beam: 19
Beam: 20
Beam: 21
Beam: 22
Beam: 23
Beam: 24
Beam: 25
Beam: 26
Beam: 27
Beam: 28
Beam: 29
Beam: 30
Beam: 31
Beam: 32
Beam: 33
Beam: 34
Beam: 35
Beam: 36
Beam: 37
Beam: 38
Beam: 39
Beam: 40
Beam: 41
Beam: 42
Beam: 43
Beam: 44
Beam: 45
Beam: 46
Beam: 47
Beam: 48
Beam: 49
Beam: 50
Beam: 51
Beam: 52
Beam: 53
Beam: 54
Beam: 55
Beam: 56
Beam: 57
Beam: 58
Beam: 59
Beam: 60
Beam: 61
Beam: 62
Beam: 63
Beam: 64
Beam: 65
Beam: 66
Beam: 67
Beam: 68
Beam: 69
Beam: 70
Beam: 71
Beam: 72
Beam: 73
Beam: 74
Beam: 75
Beam: 76
Beam: 77
Beam: 78
Beam: 79
Beam: 80
Beam: 81
Beam: 82
Beam: 83
Beam: 84
Beam: 85
Beam: 86
Beam: 87
Beam: 88
Beam: 89
Beam: 90
Beam: 91
Beam: 92
Beam: 93
Beam: 94
Beam: 95
Beam: 96
Beam: 97
Beam: 98
Beam: 99
Beam: 100
Beam: 101
Beam: 102
Beam: 103
Beam: 104
Beam: 105
Beam: 106
Beam: 107
smoothSolver:  Solving for Uy, Initial residual = 1.111089359e-06, Final residual = 1.877812883e-16, No Iterations 5
smoothSolver:  Solving for Uz, Initial residual = 0.04352937716, Final residual = 3.638294221e-17, No Iterations 5
smoothSolver:  Solving for Temperature, Initial residual = 0.02454468297, Final residual = 3.860244008e-11, No Iterations 5
Correcting epsilon1, mean residual = 0, max residual = 0
GAMG:  Solving for p_rgh, Initial residual = 0.02393348828, Final residual = 7.543114769e-10, No Iterations 29
time step continuity errors : sum local = 3.776592652e-24, global = 2.852237542e-26, cumulative = 5.337389792e-26
GAMG:  Solving for p_rgh, Initial residual = 0.0002599676239, Final residual = 7.63918434e-10, No Iterations 14
time step continuity errors : sum local = 4.157837136e-24, global = 4.206746238e-26, cumulative = 9.54413603e-26
GAMGPCG:  Solving for p_rgh, Initial residual = 6.202912659e-07, Final residual = 6.708557949e-10, No Iterations 1
time step continuity errors : sum local = 3.647370296e-24, global = -8.946579932e-27, cumulative = 8.649478036e-26
ExecutionTime = 118.27 s  ClockTime = 120 s

Courant Number mean: 1.097100839e-18 max: 9.710408406e-17
Interface Courant Number mean: 0 max: 0
deltaT = 1e-07
Time = 1.2e-06

smoothSolver:  Solving for alpha.phase1, Initial residual = 9.728407375e-23, Final residual = 9.728407375e-23, No Iterations 0
Phase-1 volume fraction = 0.5  Min(alpha.phase1) = 0  Max(alpha.phase1) = 1
MULES: Correcting alpha.phase1
MULES: Correcting alpha.phase1
MULES: Correcting alpha.phase1
Phase-1 volume fraction = 0.5  Min(alpha.phase1) = 0  Max(alpha.phase1) = 1
smoothSolver:  Solving for alpha.phase1, Initial residual = 9.728407375e-23, Final residual = 9.728407375e-23, No Iterations 0
Phase-1 volume fraction = 0.5  Min(alpha.phase1) = 0  Max(alpha.phase1) = 1
MULES: Correcting alpha.phase1
MULES: Correcting alpha.phase1
MULES: Correcting alpha.phase1
Phase-1 volume fraction = 0.5  Min(alpha.phase1) = 0  Max(alpha.phase1) = 1
smoothSolver:  Solving for alpha.phase1, Initial residual = 9.728407375e-23, Final residual = 9.728407375e-23, No Iterations 0
Phase-1 volume fraction = 0.5  Min(alpha.phase1) = 0  Max(alpha.phase1) = 1
MULES: Correcting alpha.phase1
MULES: Correcting alpha.phase1
MULES: Correcting alpha.phase1
Phase-1 volume fraction = 0.5  Min(alpha.phase1) = 0  Max(alpha.phase1) = 1
iterator_distance 	2.486795986e-06
Beam: 0
Beam: 1
Beam: 2
Beam: 3
Beam: 4
Beam: 5
Beam: 6
Beam: 7
Beam: 8
Beam: 9
Beam: 10
Beam: 11
Beam: 12
Beam: 13
Beam: 14
Beam: 15
Beam: 16
Beam: 17
Beam: 18
Beam: 19
Beam: 20
Beam: 21
Beam: 22
Beam: 23
Beam: 24
Beam: 25
Beam: 26
Beam: 27
Beam: 28
Beam: 29
Beam: 30
Beam: 31
Beam: 32
Beam: 33
Beam: 34
Beam: 35
Beam: 36
Beam: 37
Beam: 38
Beam: 39
Beam: 40
Beam: 41
Beam: 42
Beam: 43
Beam: 44
Beam: 45
Beam: 46
Beam: 47
Beam: 48
Beam: 49
Beam: 50
Beam: 51
Beam: 52
Beam: 53
Beam: 54
Beam: 55
Beam: 56
Beam: 57
Beam: 58
Beam: 59
Beam: 60
Beam: 61
Beam: 62
Beam: 63
Beam: 64
Beam: 65
Beam: 66
Beam: 67
Beam: 68
Beam: 69
Beam: 70
Beam: 71
Beam: 72
Beam: 73
Beam: 74
Beam: 75
Beam: 76
Beam: 77
Beam: 78
Beam: 79
Beam: 80
Beam: 81
Beam: 82
Beam: 83
Beam: 84
Beam: 85
Beam: 86
Beam: 87
Beam: 88
Beam: 89
Beam: 90
Beam: 91
Beam: 92
Beam: 93
Beam: 94
Beam: 95
Beam: 96
Beam: 97
Beam: 98
Beam: 99
Beam: 100
Beam: 101
Beam: 102
Beam: 103
Beam: 104
Beam: 105
Beam: 106
Beam: 107
Beam: 108
smoothSolver:  Solving for Uy, Initial residual = 1.010130017e-06, Final residual = 1.764785178e-16, No Iterations 5
smoothSolver:  Solving for Uz, Initial residual = 0.0381811752, Final residual = 4.168429564e-17, No Iterations 5
smoothSolver:  Solving for Temperature, Initial residual = 0.02234659838, Final residual = 3.509946321e-11, No Iterations 5
Correcting epsilon1, mean residual = 0, max residual = 0
GAMG:  Solving for p_rgh, Initial residual = 0.02137119788, Final residual = 7.177419617e-10, No Iterations 29
time step continuity errors : sum local = 3.986794814e-24, global = 3.288087042e-26, cumulative = 1.193756508e-25
GAMG:  Solving for p_rgh, Initial residual = 0.0002396342355, Final residual = 7.162920142e-10, No Iterations 14
time step continuity errors : sum local = 4.291161292e-24, global = 4.241703859e-26, cumulative = 1.617926894e-25
GAMGPCG:  Solving for p_rgh, Initial residual = 5.697396865e-07, Final residual = 6.166429947e-10, No Iterations 1
time step continuity errors : sum local = 3.690504773e-24, global = -8.63204842e-27, cumulative = 1.53160641e-25
ExecutionTime = 129.85 s  ClockTime = 132 s

Courant Number mean: 1.360556212e-18 max: 1.260321722e-16
Interface Courant Number mean: 0 max: 0
deltaT = 1e-07
Time = 1.3e-06

smoothSolver:  Solving for alpha.phase1, Initial residual = 1.066201551e-22, Final residual = 1.066201551e-22, No Iterations 0
Phase-1 volume fraction = 0.5  Min(alpha.phase1) = 0  Max(alpha.phase1) = 1
MULES: Correcting alpha.phase1
MULES: Correcting alpha.phase1
MULES: Correcting alpha.phase1
Phase-1 volume fraction = 0.5  Min(alpha.phase1) = 0  Max(alpha.phase1) = 1
smoothSolver:  Solving for alpha.phase1, Initial residual = 1.066201551e-22, Final residual = 1.066201551e-22, No Iterations 0
Phase-1 volume fraction = 0.5  Min(alpha.phase1) = 0  Max(alpha.phase1) = 1
MULES: Correcting alpha.phase1
MULES: Correcting alpha.phase1
MULES: Correcting alpha.phase1
Phase-1 volume fraction = 0.5  Min(alpha.phase1) = 0  Max(alpha.phase1) = 1
smoothSolver:  Solving for alpha.phase1, Initial residual = 1.066201551e-22, Final residual = 1.066201551e-22, No Iterations 0
Phase-1 volume fraction = 0.5  Min(alpha.phase1) = 0  Max(alpha.phase1) = 1
MULES: Correcting alpha.phase1
MULES: Correcting alpha.phase1
MULES: Correcting alpha.phase1
Phase-1 volume fraction = 0.5  Min(alpha.phase1) = 0  Max(alpha.phase1) = 1
iterator_distance 	2.486795986e-06
Beam: 0
Beam: 1
Beam: 2
Beam: 3
Beam: 4
Beam: 5
Beam: 6
Beam: 7
Beam: 8
Beam: 9
Beam: 10
Beam: 11
Beam: 12
Beam: 13
Beam: 14
Beam: 15
Beam: 16
Beam: 17
Beam: 18
Beam: 19
Beam: 20
Beam: 21
Beam: 22
Beam: 23
Beam: 24
Beam: 25
Beam: 26
Beam: 27
Beam: 28
Beam: 29
Beam: 30
Beam: 31
Beam: 32
Beam: 33
Beam: 34
Beam: 35
Beam: 36
Beam: 37
Beam: 38
Beam: 39
Beam: 40
Beam: 41
Beam: 42
Beam: 43
Beam: 44
Beam: 45
Beam: 46
Beam: 47
Beam: 48
Beam: 49
Beam: 50
Beam: 51
Beam: 52
Beam: 53
Beam: 54
Beam: 55
Beam: 56
Beam: 57
Beam: 58
Beam: 59
Beam: 60
Beam: 61
Beam: 62
Beam: 63
Beam: 64
Beam: 65
Beam: 66
Beam: 67
Beam: 68
Beam: 69
Beam: 70
Beam: 71
Beam: 72
Beam: 73
Beam: 74
Beam: 75
Beam: 76
Beam: 77
Beam: 78
Beam: 79
Beam: 80
Beam: 81
Beam: 82
Beam: 83
Beam: 84
Beam: 85
Beam: 86
Beam: 87
Beam: 88
Beam: 89
Beam: 90
Beam: 91
Beam: 92
Beam: 93
Beam: 94
Beam: 95
Beam: 96
Beam: 97
Beam: 98
Beam: 99
Beam: 100
Beam: 101
Beam: 102
Beam: 103
Beam: 104
Beam: 105
Beam: 106
Beam: 107
Beam: 108
smoothSolver:  Solving for Uy, Initial residual = 9.271229716e-07, Final residual = 1.708497072e-16, No Iterations 5
smoothSolver:  Solving for Uz, Initial residual = 0.03368580817, Final residual = 3.489474477e-17, No Iterations 5
smoothSolver:  Solving for Temperature, Initial residual = 0.020503097, Final residual = 3.436094533e-11, No Iterations 5
Correcting epsilon1, mean residual = 0, max residual = 0
GAMG:  Solving for p_rgh, Initial residual = 0.0192813466, Final residual = 6.882305942e-10, No Iterations 29
time step continuity errors : sum local = 4.199405307e-24, global = 3.510269061e-26, cumulative = 1.882633316e-25
GAMG:  Solving for p_rgh, Initial residual = 0.0002227382769, Final residual = 6.775070996e-10, No Iterations 14
time step continuity errors : sum local = 4.429589478e-24, global = 4.236608341e-26, cumulative = 2.30629415e-25
GAMGPCG:  Solving for p_rgh, Initial residual = 5.276199264e-07, Final residual = 5.71975772e-10, No Iterations 1
time step continuity errors : sum local = 3.736217135e-24, global = -8.40404227e-27, cumulative = 2.222253727e-25
ExecutionTime = 141.84 s  ClockTime = 145 s

Courant Number mean: 1.660008578e-18 max: 1.600454067e-16
Interface Courant Number mean: 0 max: 0
deltaT = 1e-07
Time = 1.4e-06

smoothSolver:  Solving for alpha.phase1, Initial residual = 1.158480352e-22, Final residual = 1.158480352e-22, No Iterations 0
Phase-1 volume fraction = 0.5  Min(alpha.phase1) = 0  Max(alpha.phase1) = 1
MULES: Correcting alpha.phase1
MULES: Correcting alpha.phase1
MULES: Correcting alpha.phase1
Phase-1 volume fraction = 0.5  Min(alpha.phase1) = 0  Max(alpha.phase1) = 1
smoothSolver:  Solving for alpha.phase1, Initial residual = 1.158480352e-22, Final residual = 1.158480352e-22, No Iterations 0
Phase-1 volume fraction = 0.5  Min(alpha.phase1) = 0  Max(alpha.phase1) = 1
MULES: Correcting alpha.phase1
MULES: Correcting alpha.phase1
MULES: Correcting alpha.phase1
Phase-1 volume fraction = 0.5  Min(alpha.phase1) = 0  Max(alpha.phase1) = 1
smoothSolver:  Solving for alpha.phase1, Initial residual = 1.158480352e-22, Final residual = 1.158480352e-22, No Iterations 0
Phase-1 volume fraction = 0.5  Min(alpha.phase1) = 0  Max(alpha.phase1) = 1
MULES: Correcting alpha.phase1
MULES: Correcting alpha.phase1
MULES: Correcting alpha.phase1
Phase-1 volume fraction = 0.5  Min(alpha.phase1) = 0  Max(alpha.phase1) = 1
iterator_distance 	2.486795986e-06
Beam: 0
Beam: 1
Beam: 2
Beam: 3
Beam: 4
Beam: 5
Beam: 6
Beam: 7
Beam: 8
Beam: 9
Beam: 10
Beam: 11
Beam: 12
Beam: 13
Beam: 14
Beam: 15
Beam: 16
Beam: 17
Beam: 18
Beam: 19
Beam: 20
Beam: 21
Beam: 22
Beam: 23
Beam: 24
Beam: 25
Beam: 26
Beam: 27
Beam: 28
Beam: 29
Beam: 30
Beam: 31
Beam: 32
Beam: 33
Beam: 34
Beam: 35
Beam: 36
Beam: 37
Beam: 38
Beam: 39
Beam: 40
Beam: 41
Beam: 42
Beam: 43
Beam: 44
Beam: 45
Beam: 46
Beam: 47
Beam: 48
Beam: 49
Beam: 50
Beam: 51
Beam: 52
Beam: 53
Beam: 54
Beam: 55
Beam: 56
Beam: 57
Beam: 58
Beam: 59
Beam: 60
Beam: 61
Beam: 62
Beam: 63
Beam: 64
Beam: 65
Beam: 66
Beam: 67
Beam: 68
Beam: 69
Beam: 70
Beam: 71
Beam: 72
Beam: 73
Beam: 74
Beam: 75
Beam: 76
Beam: 77
Beam: 78
Beam: 79
Beam: 80
Beam: 81
Beam: 82
Beam: 83
Beam: 84
Beam: 85
Beam: 86
Beam: 87
Beam: 88
Beam: 89
Beam: 90
Beam: 91
Beam: 92
Beam: 93
Beam: 94
Beam: 95
Beam: 96
Beam: 97
Beam: 98
Beam: 99
Beam: 100
Beam: 101
Beam: 102
Beam: 103
Beam: 104
Beam: 105
Beam: 106
Beam: 107
smoothSolver:  Solving for Uy, Initial residual = 8.5781724e-07, Final residual = 1.594135484e-16, No Iterations 5
smoothSolver:  Solving for Uz, Initial residual = 0.02987890774, Final residual = 3.078586138e-17, No Iterations 5
smoothSolver:  Solving for Temperature, Initial residual = 0.01893349856, Final residual = 2.988780438e-11, No Iterations 5
Correcting epsilon1, mean residual = 0, max residual = 0
GAMG:  Solving for p_rgh, Initial residual = 0.01753867095, Final residual = 6.93918536e-10, No Iterations 29
time step continuity errors : sum local = 4.613285821e-24, global = 3.754160015e-26, cumulative = 2.597669728e-25
GAMG:  Solving for p_rgh, Initial residual = 0.0002083755347, Final residual = 6.454067293e-10, No Iterations 14
time step continuity errors : sum local = 4.572462677e-24, global = 4.190223139e-26, cumulative = 3.016692042e-25
GAMGPCG:  Solving for p_rgh, Initial residual = 4.917741756e-07, Final residual = 5.344521126e-10, No Iterations 1
time step continuity errors : sum local = 3.783211044e-24, global = -8.28375401e-27, cumulative = 2.933854502e-25
ExecutionTime = 153.94 s  ClockTime = 157 s

Courant Number mean: 1.997453368e-18 max: 1.994955322e-16
Interface Courant Number mean: 0 max: 0
deltaT = 1e-07
Time = 1.5e-06

smoothSolver:  Solving for alpha.phase1, Initial residual = 1.249394628e-22, Final residual = 1.249394628e-22, No Iterations 0
Phase-1 volume fraction = 0.5  Min(alpha.phase1) = 0  Max(alpha.phase1) = 1
MULES: Correcting alpha.phase1
MULES: Correcting alpha.phase1
MULES: Correcting alpha.phase1
Phase-1 volume fraction = 0.5  Min(alpha.phase1) = 0  Max(alpha.phase1) = 1
smoothSolver:  Solving for alpha.phase1, Initial residual = 1.249394628e-22, Final residual = 1.249394628e-22, No Iterations 0
Phase-1 volume fraction = 0.5  Min(alpha.phase1) = 0  Max(alpha.phase1) = 1
MULES: Correcting alpha.phase1
MULES: Correcting alpha.phase1
MULES: Correcting alpha.phase1
Phase-1 volume fraction = 0.5  Min(alpha.phase1) = 0  Max(alpha.phase1) = 1
smoothSolver:  Solving for alpha.phase1, Initial residual = 1.249394628e-22, Final residual = 1.249394628e-22, No Iterations 0
Phase-1 volume fraction = 0.5  Min(alpha.phase1) = 0  Max(alpha.phase1) = 1
MULES: Correcting alpha.phase1
MULES: Correcting alpha.phase1
MULES: Correcting alpha.phase1
Phase-1 volume fraction = 0.5  Min(alpha.phase1) = 0  Max(alpha.phase1) = 1
iterator_distance 	2.486795986e-06
Beam: 0
Beam: 1
Beam: 2
Beam: 3
Beam: 4
Beam: 5
Beam: 6
Beam: 7
Beam: 8
Beam: 9
Beam: 10
Beam: 11
Beam: 12
Beam: 13
Beam: 14
Beam: 15
Beam: 16
Beam: 17
Beam: 18
Beam: 19
Beam: 20
Beam: 21
Beam: 22
Beam: 23
Beam: 24
Beam: 25
Beam: 26
Beam: 27
Beam: 28
Beam: 29
Beam: 30
Beam: 31
Beam: 32
Beam: 33
Beam: 34
Beam: 35
Beam: 36
Beam: 37
Beam: 38
Beam: 39
Beam: 40
Beam: 41
Beam: 42
Beam: 43
Beam: 44
Beam: 45
Beam: 46
Beam: 47
Beam: 48
Beam: 49
Beam: 50
Beam: 51
Beam: 52
Beam: 53
Beam: 54
Beam: 55
Beam: 56
Beam: 57
Beam: 58
Beam: 59
Beam: 60
Beam: 61
Beam: 62
Beam: 63
Beam: 64
Beam: 65
Beam: 66
Beam: 67
Beam: 68
Beam: 69
Beam: 70
Beam: 71
Beam: 72
Beam: 73
Beam: 74
Beam: 75
Beam: 76
Beam: 77
Beam: 78
Beam: 79
Beam: 80
Beam: 81
Beam: 82
Beam: 83
Beam: 84
Beam: 85
Beam: 86
Beam: 87
Beam: 88
Beam: 89
Beam: 90
Beam: 91
Beam: 92
Beam: 93
Beam: 94
Beam: 95
Beam: 96
Beam: 97
Beam: 98
Beam: 99
Beam: 100
Beam: 101
Beam: 102
Beam: 103
Beam: 104
Beam: 105
Beam: 106
Beam: 107
Beam: 108
smoothSolver:  Solving for Uy, Initial residual = 7.992106188e-07, Final residual = 1.515573029e-16, No Iterations 5
smoothSolver:  Solving for Uz, Initial residual = 0.02662048951, Final residual = 3.445093073e-17, No Iterations 5
smoothSolver:  Solving for Temperature, Initial residual = 0.01759456787, Final residual = 2.751354697e-11, No Iterations 5
Correcting epsilon1, mean residual = 0, max residual = 0
GAMG:  Solving for p_rgh, Initial residual = 0.01606208054, Final residual = 9.564941203e-10, No Iterations 28
time step continuity errors : sum local = 6.880617476e-24, global = -6.1316583e-26, cumulative = 2.320688672e-25
GAMG:  Solving for p_rgh, Initial residual = 0.000196019875, Final residual = 6.201546235e-10, No Iterations 14
time step continuity errors : sum local = 4.731192808e-24, global = 4.118523436e-26, cumulative = 2.732541016e-25
GAMGPCG:  Solving for p_rgh, Initial residual = 4.609354119e-07, Final residual = 5.017335785e-10, No Iterations 1
time step continuity errors : sum local = 3.825257291e-24, global = -8.188886512e-27, cumulative = 2.650652151e-25
ExecutionTime = 164.67 s  ClockTime = 168 s

Courant Number mean: 2.374865985e-18 max: 2.448110159e-16
Interface Courant Number mean: 0 max: 0
deltaT = 1e-07
Time = 1.6e-06

smoothSolver:  Solving for alpha.phase1, Initial residual = 1.340609739e-22, Final residual = 1.340609739e-22, No Iterations 0
Phase-1 volume fraction = 0.5  Min(alpha.phase1) = 0  Max(alpha.phase1) = 1
MULES: Correcting alpha.phase1
MULES: Correcting alpha.phase1
MULES: Correcting alpha.phase1
Phase-1 volume fraction = 0.5  Min(alpha.phase1) = 0  Max(alpha.phase1) = 1
smoothSolver:  Solving for alpha.phase1, Initial residual = 1.340609739e-22, Final residual = 1.340609739e-22, No Iterations 0
Phase-1 volume fraction = 0.5  Min(alpha.phase1) = 0  Max(alpha.phase1) = 1
MULES: Correcting alpha.phase1
MULES: Correcting alpha.phase1
MULES: Correcting alpha.phase1
Phase-1 volume fraction = 0.5  Min(alpha.phase1) = 0  Max(alpha.phase1) = 1
smoothSolver:  Solving for alpha.phase1, Initial residual = 1.340609739e-22, Final residual = 1.340609739e-22, No Iterations 0
Phase-1 volume fraction = 0.5  Min(alpha.phase1) = 0  Max(alpha.phase1) = 1
MULES: Correcting alpha.phase1
MULES: Correcting alpha.phase1
MULES: Correcting alpha.phase1
Phase-1 volume fraction = 0.5  Min(alpha.phase1) = 0  Max(alpha.phase1) = 1
iterator_distance 	2.486795986e-06
Beam: 0
Beam: 1
Beam: 2
Beam: 3
Beam: 4
Beam: 5
Beam: 6
Beam: 7
Beam: 8
Beam: 9
Beam: 10
Beam: 11
Beam: 12
Beam: 13
Beam: 14
Beam: 15
Beam: 16
Beam: 17
Beam: 18
Beam: 19
Beam: 20
Beam: 21
Beam: 22
Beam: 23
Beam: 24
Beam: 25
Beam: 26
Beam: 27
Beam: 28
Beam: 29
Beam: 30
Beam: 31
Beam: 32
Beam: 33
Beam: 34
Beam: 35
Beam: 36
Beam: 37
Beam: 38
Beam: 39
Beam: 40
Beam: 41
Beam: 42
Beam: 43
Beam: 44
Beam: 45
Beam: 46
Beam: 47
Beam: 48
Beam: 49
Beam: 50
Beam: 51
Beam: 52
Beam: 53
Beam: 54
Beam: 55
Beam: 56
Beam: 57
Beam: 58
Beam: 59
Beam: 60
Beam: 61
Beam: 62
Beam: 63
Beam: 64
Beam: 65
Beam: 66
Beam: 67
Beam: 68
Beam: 69
Beam: 70
Beam: 71
Beam: 72
Beam: 73
Beam: 74
Beam: 75
Beam: 76
Beam: 77
Beam: 78
Beam: 79
Beam: 80
Beam: 81
Beam: 82
Beam: 83
Beam: 84
Beam: 85
Beam: 86
Beam: 87
Beam: 88
Beam: 89
Beam: 90
Beam: 91
Beam: 92
Beam: 93
Beam: 94
Beam: 95
Beam: 96
Beam: 97
Beam: 98
Beam: 99
Beam: 100
Beam: 101
Beam: 102
Beam: 103
Beam: 104
Beam: 105
Beam: 106
Beam: 107
Beam: 108
smoothSolver:  Solving for Uy, Initial residual = 7.489511239e-07, Final residual = 1.468453977e-16, No Iterations 5
smoothSolver:  Solving for Uz, Initial residual = 0.02378536765, Final residual = 3.151222546e-17, No Iterations 5
smoothSolver:  Solving for Temperature, Initial residual = 0.01642745268, Final residual = 2.573360199e-11, No Iterations 5
Correcting epsilon1, mean residual = 0, max residual = 0
GAMG:  Solving for p_rgh, Initial residual = 0.01480202455, Final residual = 9.175081229e-10, No Iterations 28
time step continuity errors : sum local = 7.099805176e-24, global = -6.57559019e-26, cumulative = 1.993093132e-25
GAMG:  Solving for p_rgh, Initial residual = 0.0001853089306, Final residual = 9.778123518e-10, No Iterations 13
time step continuity errors : sum local = 7.992467371e-24, global = -6.354353865e-26, cumulative = 1.357657745e-25
GAMGPCG:  Solving for p_rgh, Initial residual = 4.344445743e-07, Final residual = 4.55009564e-10, No Iterations 1
time step continuity errors : sum local = 3.716890879e-24, global = -3.47381315e-27, cumulative = 1.322919614e-25
ExecutionTime = 179.25 s  ClockTime = 184 s

Courant Number mean: 2.794222834e-18 max: 2.964397315e-16
Interface Courant Number mean: 0 max: 0
deltaT = 1e-07
Time = 1.7e-06

smoothSolver:  Solving for alpha.phase1, Initial residual = 1.430404182e-22, Final residual = 1.430404182e-22, No Iterations 0
Phase-1 volume fraction = 0.5  Min(alpha.phase1) = 0  Max(alpha.phase1) = 1
MULES: Correcting alpha.phase1
MULES: Correcting alpha.phase1
MULES: Correcting alpha.phase1
Phase-1 volume fraction = 0.5  Min(alpha.phase1) = 0  Max(alpha.phase1) = 1
smoothSolver:  Solving for alpha.phase1, Initial residual = 1.430404182e-22, Final residual = 1.430404182e-22, No Iterations 0
Phase-1 volume fraction = 0.5  Min(alpha.phase1) = 0  Max(alpha.phase1) = 1
MULES: Correcting alpha.phase1
MULES: Correcting alpha.phase1
MULES: Correcting alpha.phase1
Phase-1 volume fraction = 0.5  Min(alpha.phase1) = 0  Max(alpha.phase1) = 1
smoothSolver:  Solving for alpha.phase1, Initial residual = 1.430404182e-22, Final residual = 1.430404182e-22, No Iterations 0
Phase-1 volume fraction = 0.5  Min(alpha.phase1) = 0  Max(alpha.phase1) = 1
MULES: Correcting alpha.phase1
MULES: Correcting alpha.phase1
MULES: Correcting alpha.phase1
Phase-1 volume fraction = 0.5  Min(alpha.phase1) = 0  Max(alpha.phase1) = 1
iterator_distance 	2.486795986e-06
Beam: 0
Beam: 1
Beam: 2
Beam: 3
Beam: 4
Beam: 5
Beam: 6
Beam: 7
Beam: 8
Beam: 9
Beam: 10
Beam: 11
Beam: 12
Beam: 13
Beam: 14
Beam: 15
Beam: 16
Beam: 17
Beam: 18
Beam: 19
Beam: 20
Beam: 21
Beam: 22
Beam: 23
Beam: 24
Beam: 25
Beam: 26
Beam: 27
Beam: 28
Beam: 29
Beam: 30
Beam: 31
Beam: 32
Beam: 33
Beam: 34
Beam: 35
Beam: 36
Beam: 37
Beam: 38
Beam: 39
Beam: 40
Beam: 41
Beam: 42
Beam: 43
Beam: 44
Beam: 45
Beam: 46
Beam: 47
Beam: 48
Beam: 49
Beam: 50
Beam: 51
Beam: 52
Beam: 53
Beam: 54
Beam: 55
Beam: 56
Beam: 57
Beam: 58
Beam: 59
Beam: 60
Beam: 61
Beam: 62
Beam: 63
Beam: 64
Beam: 65
Beam: 66
Beam: 67
Beam: 68
Beam: 69
Beam: 70
Beam: 71
Beam: 72
Beam: 73
Beam: 74
Beam: 75
Beam: 76
Beam: 77
Beam: 78
Beam: 79
Beam: 80
Beam: 81
Beam: 82
Beam: 83
Beam: 84
Beam: 85
Beam: 86
Beam: 87
Beam: 88
Beam: 89
Beam: 90
Beam: 91
Beam: 92
Beam: 93
Beam: 94
Beam: 95
Beam: 96
Beam: 97
Beam: 98
Beam: 99
Beam: 100
Beam: 101
Beam: 102
Beam: 103
Beam: 104
Beam: 105
Beam: 106
Beam: 107
smoothSolver:  Solving for Uy, Initial residual = 7.050512784e-07, Final residual = 1.420513562e-16, No Iterations 5
smoothSolver:  Solving for Uz, Initial residual = 0.02132501596, Final residual = 3.133355274e-17, No Iterations 5
smoothSolver:  Solving for Temperature, Initial residual = 0.01540016599, Final residual = 2.423978755e-11, No Iterations 5
Correcting epsilon1, mean residual = 0, max residual = 0
GAMG:  Solving for p_rgh, Initial residual = 0.01371718936, Final residual = 8.833104489e-10, No Iterations 28
time step continuity errors : sum local = 7.315428136e-24, global = -7.503978274e-26, cumulative = 5.725217864e-26
GAMG:  Solving for p_rgh, Initial residual = 0.0001758769356, Final residual = 9.471348814e-10, No Iterations 13
time step continuity errors : sum local = 8.256882842e-24, global = -6.423511656e-26, cumulative = -6.982937914e-27
GAMGPCG:  Solving for p_rgh, Initial residual = 4.108434604e-07, Final residual = 4.309428244e-10, No Iterations 1
time step continuity errors : sum local = 3.754636475e-24, global = -3.765914563e-27, cumulative = -1.074885248e-26
ExecutionTime = 190.53 s  ClockTime = 195 s

Courant Number mean: 3.257629929e-18 max: 3.545761068e-16
Interface Courant Number mean: 0 max: 0
deltaT = 1e-07
Time = 1.8e-06

smoothSolver:  Solving for alpha.phase1, Initial residual = 1.518389765e-22, Final residual = 1.518389765e-22, No Iterations 0
Phase-1 volume fraction = 0.5  Min(alpha.phase1) = 0  Max(alpha.phase1) = 1
MULES: Correcting alpha.phase1
MULES: Correcting alpha.phase1
MULES: Correcting alpha.phase1
Phase-1 volume fraction = 0.5  Min(alpha.phase1) = 0  Max(alpha.phase1) = 1
smoothSolver:  Solving for alpha.phase1, Initial residual = 1.518389765e-22, Final residual = 1.518389765e-22, No Iterations 0
Phase-1 volume fraction = 0.5  Min(alpha.phase1) = 0  Max(alpha.phase1) = 1
MULES: Correcting alpha.phase1
MULES: Correcting alpha.phase1
MULES: Correcting alpha.phase1
Phase-1 volume fraction = 0.5  Min(alpha.phase1) = 0  Max(alpha.phase1) = 1
smoothSolver:  Solving for alpha.phase1, Initial residual = 1.518389765e-22, Final residual = 1.518389765e-22, No Iterations 0
Phase-1 volume fraction = 0.5  Min(alpha.phase1) = 0  Max(alpha.phase1) = 1
MULES: Correcting alpha.phase1
MULES: Correcting alpha.phase1
MULES: Correcting alpha.phase1
Phase-1 volume fraction = 0.5  Min(alpha.phase1) = 0  Max(alpha.phase1) = 1
iterator_distance 	2.486795986e-06
Beam: 0
Beam: 1
Beam: 2
Beam: 3
Beam: 4
Beam: 5
Beam: 6
Beam: 7
Beam: 8
Beam: 9
Beam: 10
Beam: 11
Beam: 12
Beam: 13
Beam: 14
Beam: 15
Beam: 16
Beam: 17
Beam: 18
Beam: 19
Beam: 20
Beam: 21
Beam: 22
Beam: 23
Beam: 24
Beam: 25
Beam: 26
Beam: 27
Beam: 28
Beam: 29
Beam: 30
Beam: 31
Beam: 32
Beam: 33
Beam: 34
Beam: 35
Beam: 36
Beam: 37
Beam: 38
Beam: 39
Beam: 40
Beam: 41
Beam: 42
Beam: 43
Beam: 44
Beam: 45
Beam: 46
Beam: 47
Beam: 48
Beam: 49
Beam: 50
Beam: 51
Beam: 52
Beam: 53
Beam: 54
Beam: 55
Beam: 56
Beam: 57
Beam: 58
Beam: 59
Beam: 60
Beam: 61
Beam: 62
Beam: 63
Beam: 64
Beam: 65
Beam: 66
Beam: 67
Beam: 68
Beam: 69
Beam: 70
Beam: 71
Beam: 72
Beam: 73
Beam: 74
Beam: 75
Beam: 76
Beam: 77
Beam: 78
Beam: 79
Beam: 80
Beam: 81
Beam: 82
Beam: 83
Beam: 84
Beam: 85
Beam: 86
Beam: 87
Beam: 88
Beam: 89
Beam: 90
Beam: 91
Beam: 92
Beam: 93
Beam: 94
Beam: 95
Beam: 96
Beam: 97
Beam: 98
Beam: 99
Beam: 100
Beam: 101
Beam: 102
Beam: 103
Beam: 104
Beam: 105
Beam: 106
Beam: 107
Beam: 108
smoothSolver:  Solving for Uy, Initial residual = 6.667861149e-07, Final residual = 1.358490087e-16, No Iterations 5
smoothSolver:  Solving for Uz, Initial residual = 0.019174102, Final residual = 2.738630364e-17, No Iterations 5
smoothSolver:  Solving for Temperature, Initial residual = 0.01450025907, Final residual = 2.381717063e-11, No Iterations 5
Correcting epsilon1, mean residual = 0, max residual = 0
GAMG:  Solving for p_rgh, Initial residual = 0.01277716286, Final residual = 8.696496873e-10, No Iterations 28
time step continuity errors : sum local = 7.674267086e-24, global = -7.911824287e-26, cumulative = -8.986709534e-26
GAMG:  Solving for p_rgh, Initial residual = 0.0001674909599, Final residual = 9.228695091e-10, No Iterations 13
time step continuity errors : sum local = 8.546232632e-24, global = -6.475695279e-26, cumulative = -1.546240481e-25
GAMGPCG:  Solving for p_rgh, Initial residual = 3.898987624e-07, Final residual = 4.092302769e-10, No Iterations 1
time step continuity errors : sum local = 3.787548655e-24, global = -4.152096773e-27, cumulative = -1.587761449e-25
ExecutionTime = 204.29 s  ClockTime = 211 s

Courant Number mean: 3.767276557e-18 max: 4.195199672e-16
Interface Courant Number mean: 0 max: 0
deltaT = 1e-07
Time = 1.9e-06

smoothSolver:  Solving for alpha.phase1, Initial residual = 1.606882621e-22, Final residual = 1.606882621e-22, No Iterations 0
Phase-1 volume fraction = 0.5  Min(alpha.phase1) = 0  Max(alpha.phase1) = 1
MULES: Correcting alpha.phase1
MULES: Correcting alpha.phase1
MULES: Correcting alpha.phase1
Phase-1 volume fraction = 0.5  Min(alpha.phase1) = 0  Max(alpha.phase1) = 1
smoothSolver:  Solving for alpha.phase1, Initial residual = 1.606882621e-22, Final residual = 1.606882621e-22, No Iterations 0
Phase-1 volume fraction = 0.5  Min(alpha.phase1) = 0  Max(alpha.phase1) = 1
MULES: Correcting alpha.phase1
MULES: Correcting alpha.phase1
MULES: Correcting alpha.phase1
Phase-1 volume fraction = 0.5  Min(alpha.phase1) = 0  Max(alpha.phase1) = 1
smoothSolver:  Solving for alpha.phase1, Initial residual = 1.606882621e-22, Final residual = 1.606882621e-22, No Iterations 0
Phase-1 volume fraction = 0.5  Min(alpha.phase1) = 0  Max(alpha.phase1) = 1
MULES: Correcting alpha.phase1
MULES: Correcting alpha.phase1
MULES: Correcting alpha.phase1
Phase-1 volume fraction = 0.5  Min(alpha.phase1) = 0  Max(alpha.phase1) = 1
iterator_distance 	2.486795986e-06
Beam: 0
Beam: 1
Beam: 2
Beam: 3
Beam: 4
Beam: 5
Beam: 6
Beam: 7
Beam: 8
Beam: 9
Beam: 10
Beam: 11
Beam: 12
Beam: 13
Beam: 14
Beam: 15
Beam: 16
Beam: 17
Beam: 18
Beam: 19
Beam: 20
Beam: 21
Beam: 22
Beam: 23
Beam: 24
Beam: 25
Beam: 26
Beam: 27
Beam: 28
Beam: 29
Beam: 30
Beam: 31
Beam: 32
Beam: 33
Beam: 34
Beam: 35
Beam: 36
Beam: 37
Beam: 38
Beam: 39
Beam: 40
Beam: 41
Beam: 42
Beam: 43
Beam: 44
Beam: 45
Beam: 46
Beam: 47
Beam: 48
Beam: 49
Beam: 50
Beam: 51
Beam: 52
Beam: 53
Beam: 54
Beam: 55
Beam: 56
Beam: 57
Beam: 58
Beam: 59
Beam: 60
Beam: 61
Beam: 62
Beam: 63
Beam: 64
Beam: 65
Beam: 66
Beam: 67
Beam: 68
Beam: 69
Beam: 70
Beam: 71
Beam: 72
Beam: 73
Beam: 74
Beam: 75
Beam: 76
Beam: 77
Beam: 78
Beam: 79
Beam: 80
Beam: 81
Beam: 82
Beam: 83
Beam: 84
Beam: 85
Beam: 86
Beam: 87
Beam: 88
Beam: 89
Beam: 90
Beam: 91
Beam: 92
Beam: 93
Beam: 94
Beam: 95
Beam: 96
Beam: 97
Beam: 98
Beam: 99
Beam: 100
Beam: 101
Beam: 102
Beam: 103
Beam: 104
Beam: 105
Beam: 106
Beam: 107
smoothSolver:  Solving for Uy, Initial residual = 6.332071787e-07, Final residual = 1.327863834e-16, No Iterations 5
smoothSolver:  Solving for Uz, Initial residual = 0.01727032437, Final residual = 2.363486165e-17, No Iterations 5
smoothSolver:  Solving for Temperature, Initial residual = 0.01369177179, Final residual = 2.19253676e-11, No Iterations 5
Correcting epsilon1, mean residual = 0, max residual = 0
GAMG:  Solving for p_rgh, Initial residual = 0.01196585382, Final residual = 8.541032742e-10, No Iterations 28
time step continuity errors : sum local = 7.999736997e-24, global = -8.28668669e-26, cumulative = -2.416430118e-25
GAMG:  Solving for p_rgh, Initial residual = 0.0001600547882, Final residual = 9.021688728e-10, No Iterations 13
time step continuity errors : sum local = 8.843487391e-24, global = -6.491904673e-26, cumulative = -3.065620585e-25
GAMGPCG:  Solving for p_rgh, Initial residual = 3.712417219e-07, Final residual = 3.899798833e-10, No Iterations 1
time step continuity errors : sum local = 3.82068694e-24, global = -4.612270426e-27, cumulative = -3.11174329e-25
ExecutionTime = 215.79 s  ClockTime = 223 s

Courant Number mean: 4.325192919e-18 max: 4.915517891e-16
Interface Courant Number mean: 0 max: 0
deltaT = 1e-07
Time = 2e-06

smoothSolver:  Solving for alpha.phase1, Initial residual = 1.693785582e-22, Final residual = 1.693785582e-22, No Iterations 0
Phase-1 volume fraction = 0.5  Min(alpha.phase1) = 0  Max(alpha.phase1) = 1
MULES: Correcting alpha.phase1
MULES: Correcting alpha.phase1
MULES: Correcting alpha.phase1
Phase-1 volume fraction = 0.5  Min(alpha.phase1) = 0  Max(alpha.phase1) = 1
smoothSolver:  Solving for alpha.phase1, Initial residual = 1.693785582e-22, Final residual = 1.693785582e-22, No Iterations 0
Phase-1 volume fraction = 0.5  Min(alpha.phase1) = 0  Max(alpha.phase1) = 1
MULES: Correcting alpha.phase1
MULES: Correcting alpha.phase1
MULES: Correcting alpha.phase1
Phase-1 volume fraction = 0.5  Min(alpha.phase1) = 0  Max(alpha.phase1) = 1
smoothSolver:  Solving for alpha.phase1, Initial residual = 1.693785582e-22, Final residual = 1.693785582e-22, No Iterations 0
Phase-1 volume fraction = 0.5  Min(alpha.phase1) = 0  Max(alpha.phase1) = 1
MULES: Correcting alpha.phase1
MULES: Correcting alpha.phase1
MULES: Correcting alpha.phase1
Phase-1 volume fraction = 0.5  Min(alpha.phase1) = 0  Max(alpha.phase1) = 1
iterator_distance 	2.486795986e-06
Beam: 0
Beam: 1
Beam: 2
Beam: 3
Beam: 4
Beam: 5
Beam: 6
Beam: 7
Beam: 8
Beam: 9
Beam: 10
Beam: 11
Beam: 12
Beam: 13
Beam: 14
Beam: 15
Beam: 16
Beam: 17
Beam: 18
Beam: 19
Beam: 20
Beam: 21
Beam: 22
Beam: 23
Beam: 24
Beam: 25
Beam: 26
Beam: 27
Beam: 28
Beam: 29
Beam: 30
Beam: 31
Beam: 32
Beam: 33
Beam: 34
Beam: 35
Beam: 36
Beam: 37
Beam: 38
Beam: 39
Beam: 40
Beam: 41
Beam: 42
Beam: 43
Beam: 44
Beam: 45
Beam: 46
Beam: 47
Beam: 48
Beam: 49
Beam: 50
Beam: 51
Beam: 52
Beam: 53
Beam: 54
Beam: 55
Beam: 56
Beam: 57
Beam: 58
Beam: 59
Beam: 60
Beam: 61
Beam: 62
Beam: 63
Beam: 64
Beam: 65
Beam: 66
Beam: 67
Beam: 68
Beam: 69
Beam: 70
Beam: 71
Beam: 72
Beam: 73
Beam: 74
Beam: 75
Beam: 76
Beam: 77
Beam: 78
Beam: 79
Beam: 80
Beam: 81
Beam: 82
Beam: 83
Beam: 84
Beam: 85
Beam: 86
Beam: 87
Beam: 88
Beam: 89
Beam: 90
Beam: 91
Beam: 92
Beam: 93
Beam: 94
Beam: 95
Beam: 96
Beam: 97
Beam: 98
Beam: 99
Beam: 100
Beam: 101
Beam: 102
Beam: 103
Beam: 104
Beam: 105
Beam: 106
Beam: 107
Beam: 108
smoothSolver:  Solving for Uy, Initial residual = 6.029648966e-07, Final residual = 1.278602714e-16, No Iterations 5
smoothSolver:  Solving for Uz, Initial residual = 0.01559765316, Final residual = 2.604963725e-17, No Iterations 5
smoothSolver:  Solving for Temperature, Initial residual = 0.01297454536, Final residual = 2.090680013e-11, No Iterations 5
Correcting epsilon1, mean residual = 0, max residual = 0
GAMG:  Solving for p_rgh, Initial residual = 0.01125980369, Final residual = 8.507295208e-10, No Iterations 28
time step continuity errors : sum local = 8.428444559e-24, global = -8.333469034e-26, cumulative = -3.945090193e-25
GAMG:  Solving for p_rgh, Initial residual = 0.0001533213384, Final residual = 8.842697293e-10, No Iterations 13
time step continuity errors : sum local = 9.146485989e-24, global = -6.482728269e-26, cumulative = -4.59336302e-25
GAMGPCG:  Solving for p_rgh, Initial residual = 3.543804972e-07, Final residual = 3.726492634e-10, No Iterations 1
time step continuity errors : sum local = 3.852517356e-24, global = -5.195615736e-27, cumulative = -4.645319177e-25
ExecutionTime = 227.67 s  ClockTime = 235 s

Courant Number mean: 4.93343083e-18 max: 5.709318065e-16
Interface Courant Number mean: 0 max: 0
deltaT = 1e-07
Time = 2.1e-06

smoothSolver:  Solving for alpha.phase1, Initial residual = 1.778919243e-22, Final residual = 1.778919243e-22, No Iterations 0
Phase-1 volume fraction = 0.5  Min(alpha.phase1) = 0  Max(alpha.phase1) = 1
MULES: Correcting alpha.phase1
MULES: Correcting alpha.phase1
MULES: Correcting alpha.phase1
Phase-1 volume fraction = 0.5  Min(alpha.phase1) = 0  Max(alpha.phase1) = 1
smoothSolver:  Solving for alpha.phase1, Initial residual = 1.778919243e-22, Final residual = 1.778919243e-22, No Iterations 0
Phase-1 volume fraction = 0.5  Min(alpha.phase1) = 0  Max(alpha.phase1) = 1
MULES: Correcting alpha.phase1
MULES: Correcting alpha.phase1
MULES: Correcting alpha.phase1
Phase-1 volume fraction = 0.5  Min(alpha.phase1) = 0  Max(alpha.phase1) = 1
smoothSolver:  Solving for alpha.phase1, Initial residual = 1.778919243e-22, Final residual = 1.778919243e-22, No Iterations 0
Phase-1 volume fraction = 0.5  Min(alpha.phase1) = 0  Max(alpha.phase1) = 1
MULES: Correcting alpha.phase1
MULES: Correcting alpha.phase1
MULES: Correcting alpha.phase1
Phase-1 volume fraction = 0.5  Min(alpha.phase1) = 0  Max(alpha.phase1) = 1
iterator_distance 	2.486795986e-06
Beam: 0
Beam: 1
Beam: 2
Beam: 3
Beam: 4
Beam: 5
Beam: 6
Beam: 7
Beam: 8
Beam: 9
Beam: 10
Beam: 11
Beam: 12
Beam: 13
Beam: 14
Beam: 15
Beam: 16
Beam: 17
Beam: 18
Beam: 19
Beam: 20
Beam: 21
Beam: 22
Beam: 23
Beam: 24
Beam: 25
Beam: 26
Beam: 27
Beam: 28
Beam: 29
Beam: 30
Beam: 31
Beam: 32
Beam: 33
Beam: 34
Beam: 35
Beam: 36
Beam: 37
Beam: 38
Beam: 39
Beam: 40
Beam: 41
Beam: 42
Beam: 43
Beam: 44
Beam: 45
Beam: 46
Beam: 47
Beam: 48
Beam: 49
Beam: 50
Beam: 51
Beam: 52
Beam: 53
Beam: 54
Beam: 55
Beam: 56
Beam: 57
Beam: 58
Beam: 59
Beam: 60
Beam: 61
Beam: 62
Beam: 63
Beam: 64
Beam: 65
Beam: 66
Beam: 67
Beam: 68
Beam: 69
Beam: 70
Beam: 71
Beam: 72
Beam: 73
Beam: 74
Beam: 75
Beam: 76
Beam: 77
Beam: 78
Beam: 79
Beam: 80
Beam: 81
Beam: 82
Beam: 83
Beam: 84
Beam: 85
Beam: 86
Beam: 87
Beam: 88
Beam: 89
Beam: 90
Beam: 91
Beam: 92
Beam: 93
Beam: 94
Beam: 95
Beam: 96
Beam: 97
Beam: 98
Beam: 99
Beam: 100
Beam: 101
Beam: 102
Beam: 103
Beam: 104
Beam: 105
Beam: 106
Beam: 107
Beam: 108
smoothSolver:  Solving for Uy, Initial residual = 5.759781701e-07, Final residual = 1.257494129e-16, No Iterations 5
smoothSolver:  Solving for Uz, Initial residual = 0.01411407302, Final residual = 2.506272839e-17, No Iterations 5
smoothSolver:  Solving for Temperature, Initial residual = 0.01232549208, Final residual = 1.879850471e-11, No Iterations 5
Correcting epsilon1, mean residual = 0, max residual = 0
GAMG:  Solving for p_rgh, Initial residual = 0.01064931793, Final residual = 8.404942098e-10, No Iterations 28
time step continuity errors : sum local = 8.780863515e-24, global = -8.766348664e-26, cumulative = -5.521954044e-25
GAMG:  Solving for p_rgh, Initial residual = 0.0001472750625, Final residual = 8.698631228e-10, No Iterations 13
time step continuity errors : sum local = 9.467422819e-24, global = -6.427294963e-26, cumulative = -6.16468354e-25
GAMGPCG:  Solving for p_rgh, Initial residual = 3.391705097e-07, Final residual = 3.568896715e-10, No Iterations 1
time step continuity errors : sum local = 3.882341416e-24, global = -5.84961299e-27, cumulative = -6.22317967e-25
ExecutionTime = 236.74 s  ClockTime = 244 s

Courant Number mean: 5.593627139e-18 max: 6.584511645e-16
Interface Courant Number mean: 0 max: 0
deltaT = 1e-07
Time = 2.2e-06

smoothSolver:  Solving for alpha.phase1, Initial residual = 1.863746869e-22, Final residual = 1.863746869e-22, No Iterations 0
Phase-1 volume fraction = 0.5  Min(alpha.phase1) = 0  Max(alpha.phase1) = 1
MULES: Correcting alpha.phase1
MULES: Correcting alpha.phase1
MULES: Correcting alpha.phase1
Phase-1 volume fraction = 0.5  Min(alpha.phase1) = 0  Max(alpha.phase1) = 1
smoothSolver:  Solving for alpha.phase1, Initial residual = 1.863746869e-22, Final residual = 1.863746869e-22, No Iterations 0
Phase-1 volume fraction = 0.5  Min(alpha.phase1) = 0  Max(alpha.phase1) = 1
MULES: Correcting alpha.phase1
MULES: Correcting alpha.phase1
MULES: Correcting alpha.phase1
Phase-1 volume fraction = 0.5  Min(alpha.phase1) = 0  Max(alpha.phase1) = 1
smoothSolver:  Solving for alpha.phase1, Initial residual = 1.863746869e-22, Final residual = 1.863746869e-22, No Iterations 0
Phase-1 volume fraction = 0.5  Min(alpha.phase1) = 0  Max(alpha.phase1) = 1
MULES: Correcting alpha.phase1
MULES: Correcting alpha.phase1
MULES: Correcting alpha.phase1
Phase-1 volume fraction = 0.5  Min(alpha.phase1) = 0  Max(alpha.phase1) = 1
iterator_distance 	2.486795986e-06
Beam: 0
Beam: 1
Beam: 2
Beam: 3
Beam: 4
Beam: 5
Beam: 6
Beam: 7
Beam: 8
Beam: 9
Beam: 10
Beam: 11
Beam: 12
Beam: 13
Beam: 14
Beam: 15
Beam: 16
Beam: 17
Beam: 18
Beam: 19
Beam: 20
Beam: 21
Beam: 22
Beam: 23
Beam: 24
Beam: 25
Beam: 26
Beam: 27
Beam: 28
Beam: 29
Beam: 30
Beam: 31
Beam: 32
Beam: 33
Beam: 34
Beam: 35
Beam: 36
Beam: 37
Beam: 38
Beam: 39
Beam: 40
Beam: 41
Beam: 42
Beam: 43
Beam: 44
Beam: 45
Beam: 46
Beam: 47
Beam: 48
Beam: 49
Beam: 50
Beam: 51
Beam: 52
Beam: 53
Beam: 54
Beam: 55
Beam: 56
Beam: 57
Beam: 58
Beam: 59
Beam: 60
Beam: 61
Beam: 62
Beam: 63
Beam: 64
Beam: 65
Beam: 66
Beam: 67
Beam: 68
Beam: 69
Beam: 70
Beam: 71
Beam: 72
Beam: 73
Beam: 74
Beam: 75
Beam: 76
Beam: 77
Beam: 78
Beam: 79
Beam: 80
Beam: 81
Beam: 82
Beam: 83
Beam: 84
Beam: 85
Beam: 86
Beam: 87
Beam: 88
Beam: 89
Beam: 90
Beam: 91
Beam: 92
Beam: 93
Beam: 94
Beam: 95
Beam: 96
Beam: 97
Beam: 98
Beam: 99
Beam: 100
Beam: 101
Beam: 102
Beam: 103
Beam: 104
Beam: 105
Beam: 106
Beam: 107
smoothSolver:  Solving for Uy, Initial residual = 5.517679144e-07, Final residual = 1.220250865e-16, No Iterations 5
smoothSolver:  Solving for Uz, Initial residual = 0.0127936813, Final residual = 2.623204623e-17, No Iterations 5
smoothSolver:  Solving for Temperature, Initial residual = 0.01173437827, Final residual = 1.862418486e-11, No Iterations 5
Correcting epsilon1, mean residual = 0, max residual = 0
GAMG:  Solving for p_rgh, Initial residual = 0.01011857722, Final residual = 8.124673315e-10, No Iterations 28
time step continuity errors : sum local = 8.926069307e-24, global = -8.999336609e-26, cumulative = -7.123113331e-25
GAMG:  Solving for p_rgh, Initial residual = 0.0001417589308, Final residual = 8.580735155e-10, No Iterations 13
time step continuity errors : sum local = 9.801820434e-24, global = -6.328877442e-26, cumulative = -7.756001075e-25
GAMGPCG:  Solving for p_rgh, Initial residual = 3.252967839e-07, Final residual = 3.424140403e-10, No Iterations 1
time step continuity errors : sum local = 3.909487694e-24, global = -6.588436744e-27, cumulative = -7.821885442e-25
ExecutionTime = 246.08 s  ClockTime = 253 s

Courant Number mean: 6.307719113e-18 max: 7.541832772e-16
Interface Courant Number mean: 0 max: 0
deltaT = 1e-07
Time = 2.3e-06

smoothSolver:  Solving for alpha.phase1, Initial residual = 1.947372037e-22, Final residual = 1.947372037e-22, No Iterations 0
Phase-1 volume fraction = 0.5  Min(alpha.phase1) = 0  Max(alpha.phase1) = 1
MULES: Correcting alpha.phase1
MULES: Correcting alpha.phase1
MULES: Correcting alpha.phase1
Phase-1 volume fraction = 0.5  Min(alpha.phase1) = 0  Max(alpha.phase1) = 1
smoothSolver:  Solving for alpha.phase1, Initial residual = 1.947372037e-22, Final residual = 1.947372037e-22, No Iterations 0
Phase-1 volume fraction = 0.5  Min(alpha.phase1) = 0  Max(alpha.phase1) = 1
MULES: Correcting alpha.phase1
MULES: Correcting alpha.phase1
MULES: Correcting alpha.phase1
Phase-1 volume fraction = 0.5  Min(alpha.phase1) = 0  Max(alpha.phase1) = 1
smoothSolver:  Solving for alpha.phase1, Initial residual = 1.947372037e-22, Final residual = 1.947372037e-22, No Iterations 0
Phase-1 volume fraction = 0.5  Min(alpha.phase1) = 0  Max(alpha.phase1) = 1
MULES: Correcting alpha.phase1
MULES: Correcting alpha.phase1
MULES: Correcting alpha.phase1
Phase-1 volume fraction = 0.5  Min(alpha.phase1) = 0  Max(alpha.phase1) = 1
iterator_distance 	2.486795986e-06
Beam: 0
Beam: 1
Beam: 2
Beam: 3
Beam: 4
Beam: 5
Beam: 6
Beam: 7
Beam: 8
Beam: 9
Beam: 10
Beam: 11
Beam: 12
Beam: 13
Beam: 14
Beam: 15
Beam: 16
Beam: 17
Beam: 18
Beam: 19
Beam: 20
Beam: 21
Beam: 22
Beam: 23
Beam: 24
Beam: 25
Beam: 26
Beam: 27
Beam: 28
Beam: 29
Beam: 30
Beam: 31
Beam: 32
Beam: 33
Beam: 34
Beam: 35
Beam: 36
Beam: 37
Beam: 38
Beam: 39
Beam: 40
Beam: 41
Beam: 42
Beam: 43
Beam: 44
Beam: 45
Beam: 46
Beam: 47
Beam: 48
Beam: 49
Beam: 50
Beam: 51
Beam: 52
Beam: 53
Beam: 54
Beam: 55
Beam: 56
Beam: 57
Beam: 58
Beam: 59
Beam: 60
Beam: 61
Beam: 62
Beam: 63
Beam: 64
Beam: 65
Beam: 66
Beam: 67
Beam: 68
Beam: 69
Beam: 70
Beam: 71
Beam: 72
Beam: 73
Beam: 74
Beam: 75
Beam: 76
Beam: 77
Beam: 78
Beam: 79
Beam: 80
Beam: 81
Beam: 82
Beam: 83
Beam: 84
Beam: 85
Beam: 86
Beam: 87
Beam: 88
Beam: 89
Beam: 90
Beam: 91
Beam: 92
Beam: 93
Beam: 94
Beam: 95
Beam: 96
Beam: 97
Beam: 98
Beam: 99
Beam: 100
Beam: 101
Beam: 102
Beam: 103
Beam: 104
Beam: 105
Beam: 106
Beam: 107
Beam: 108
smoothSolver:  Solving for Uy, Initial residual = 5.301056523e-07, Final residual = 1.203667586e-16, No Iterations 5
smoothSolver:  Solving for Uz, Initial residual = 0.01162221357, Final residual = 2.160195112e-17, No Iterations 5
smoothSolver:  Solving for Temperature, Initial residual = 0.01120242814, Final residual = 1.846360592e-11, No Iterations 5
Correcting epsilon1, mean residual = 0, max residual = 0
GAMG:  Solving for p_rgh, Initial residual = 0.009653355414, Final residual = 7.594077819e-10, No Iterations 28
time step continuity errors : sum local = 8.751825444e-24, global = -8.82571236e-26, cumulative = -8.704456678e-25
GAMG:  Solving for p_rgh, Initial residual = 0.000136691892, Final residual = 8.479063681e-10, No Iterations 13
time step continuity errors : sum local = 1.014195802e-23, global = -6.204504176e-26, cumulative = -9.324907096e-25
GAMGPCG:  Solving for p_rgh, Initial residual = 3.125886296e-07, Final residual = 3.29387683e-10, No Iterations 1
time step continuity errors : sum local = 3.937999708e-24, global = -7.424869574e-27, cumulative = -9.399155792e-25
ExecutionTime = 257.13 s  ClockTime = 265 s

Courant Number mean: 7.077525554e-18 max: 8.582761669e-16
[...]
Beam: 94
Beam: 95
Beam: 96
Beam: 97
Beam: 98
Beam: 99
Beam: 100
Beam: 101
Beam: 102
Beam: 103
Beam: 104
Beam: 105
Beam: 106
Beam: 107
Beam: 108
smoothSolver:  Solving for Uy, Initial residual = 2.780314294e-07, Final residual = 8.81201374e-17, No Iterations 5
smoothSolver:  Solving for Uz, Initial residual = 0.0005016748633, Final residual = 2.542363742e-18, No Iterations 5
smoothSolver:  Solving for Temperature, Initial residual = 0.003533370459, Final residual = 4.584909584e-12, No Iterations 5
Correcting epsilon1, mean residual = 0, max residual = 0
GAMG:  Solving for p_rgh, Initial residual = 0.004381606904, Final residual = 7.169741918e-10, No Iterations 25
time step continuity errors : sum local = 2.67984316e-23, global = 1.802517852e-25, cumulative = -7.392757118e-25
GAMG:  Solving for p_rgh, Initial residual = 5.517131985e-05, Final residual = 8.057867513e-10, No Iterations 13
time step continuity errors : sum local = 3.049262861e-23, global = 3.205793453e-26, cumulative = -7.072177773e-25
GAMGPCG:  Solving for p_rgh, Initial residual = 1.246279218e-07, Final residual = 1.388947441e-10, No Iterations 1
time step continuity errors : sum local = 5.256803887e-24, global = -3.70848962e-26, cumulative = -7.443026735e-25
ExecutionTime = 754.55 s  ClockTime = 774 s

Courant Number mean: 1.391154956e-16 max: 1.87620817e-14
Interface Courant Number mean: 0 max: 0
deltaT = 1e-07
Time = 7.2e-06

smoothSolver:  Solving for alpha.phase1, Initial residual = 4.273416388e-22, Final residual = 4.273416388e-22, No Iterations 0
Phase-1 volume fraction = 0.5  Min(alpha.phase1) = 0  Max(alpha.phase1) = 1
MULES: Correcting alpha.phase1
MULES: Correcting alpha.phase1
MULES: Correcting alpha.phase1
Phase-1 volume fraction = 0.5  Min(alpha.phase1) = 0  Max(alpha.phase1) = 1
smoothSolver:  Solving for alpha.phase1, Initial residual = 4.273416388e-22, Final residual = 4.273416388e-22, No Iterations 0
Phase-1 volume fraction = 0.5  Min(alpha.phase1) = 0  Max(alpha.phase1) = 1
MULES: Correcting alpha.phase1
MULES: Correcting alpha.phase1
MULES: Correcting alpha.phase1
Phase-1 volume fraction = 0.5  Min(alpha.phase1) = 0  Max(alpha.phase1) = 1
smoothSolver:  Solving for alpha.phase1, Initial residual = 4.273416388e-22, Final residual = 4.273416388e-22, No Iterations 0
Phase-1 volume fraction = 0.5  Min(alpha.phase1) = 0  Max(alpha.phase1) = 1
MULES: Correcting alpha.phase1
MULES: Correcting alpha.phase1
MULES: Correcting alpha.phase1
Phase-1 volume fraction = 0.5  Min(alpha.phase1) = 0  Max(alpha.phase1) = 1
iterator_distance 	2.486795986e-06
Beam: 0
Beam: 1
Beam: 2
Beam: 3
Beam: 4
Beam: 5
Beam: 6
Beam: 7
Beam: 8
Beam: 9
Beam: 10
Beam: 11
Beam: 12
Beam: 13
Beam: 14
Beam: 15
Beam: 16
Beam: 17
Beam: 18
Beam: 19
Beam: 20
Beam: 21
Beam: 22
Beam: 23
Beam: 24
Beam: 25
Beam: 26
Beam: 27
Beam: 28
Beam: 29
Beam: 30
Beam: 31
Beam: 32
Beam: 33
Beam: 34
Beam: 35
Beam: 36
Beam: 37
Beam: 38
Beam: 39
Beam: 40
Beam: 41
Beam: 42
Beam: 43
Beam: 44
Beam: 45
Beam: 46
Beam: 47
Beam: 48
Beam: 49
Beam: 50
Beam: 51
Beam: 52
Beam: 53
Beam: 54
Beam: 55
Beam: 56
Beam: 57
Beam: 58
Beam: 59
Beam: 60
Beam: 61
Beam: 62
Beam: 63
Beam: 64
Beam: 65
Beam: 66
Beam: 67
Beam: 68
Beam: 69
Beam: 70
Beam: 71
Beam: 72
Beam: 73
Beam: 74
Beam: 75
Beam: 76
Beam: 77
Beam: 78
Beam: 79
Beam: 80
Beam: 81
Beam: 82
Beam: 83
Beam: 84
Beam: 85
Beam: 86
Beam: 87
Beam: 88
Beam: 89
Beam: 90
Beam: 91
Beam: 92
Beam: 93
Beam: 94
Beam: 95
Beam: 96
Beam: 97
Beam: 98
Beam: 99
Beam: 100
Beam: 101
Beam: 102
Beam: 103
Beam: 104
Beam: 105
Beam: 106
Beam: 107
smoothSolver:  Solving for Uy, Initial residual = 2.778910754e-07, Final residual = 8.6929873e-17, No Iterations 5
smoothSolver:  Solving for Uz, Initial residual = 0.0004800651949, Final residual = 2.101160473e-18, No Iterations 5
smoothSolver:  Solving for Temperature, Initial residual = 0.003486873109, Final residual = 4.668917318e-12, No Iterations 5
Correcting epsilon1, mean residual = 0, max residual = 0
GAMG:  Solving for p_rgh, Initial residual = 0.00433734498, Final residual = 7.086138313e-10, No Iterations 25
time step continuity errors : sum local = 2.690588046e-23, global = 1.620234147e-25, cumulative = -5.822792588e-25
GAMG:  Solving for p_rgh, Initial residual = 5.448431646e-05, Final residual = 8.04242137e-10, No Iterations 13
time step continuity errors : sum local = 3.091198027e-23, global = 3.445826883e-26, cumulative = -5.4782099e-25
GAMGPCG:  Solving for p_rgh, Initial residual = 1.233375866e-07, Final residual = 1.38565413e-10, No Iterations 1
time step continuity errors : sum local = 5.326650043e-24, global = -3.714027224e-26, cumulative = -5.849612623e-25
ExecutionTime = 762.83 s  ClockTime = 782 s

Courant Number mean: 1.442859879e-16 max: 1.942827923e-14
Interface Courant Number mean: 0 max: 0
deltaT = 1e-07
Time = 7.3e-06

smoothSolver:  Solving for alpha.phase1, Initial residual = 4.28723176e-22, Final residual = 4.28723176e-22, No Iterations 0
Phase-1 volume fraction = 0.5  Min(alpha.phase1) = 0  Max(alpha.phase1) = 1
MULES: Correcting alpha.phase1
MULES: Correcting alpha.phase1
MULES: Correcting alpha.phase1
Phase-1 volume fraction = 0.5  Min(alpha.phase1) = 0  Max(alpha.phase1) = 1
smoothSolver:  Solving for alpha.phase1, Initial residual = 4.28723176e-22, Final residual = 4.28723176e-22, No Iterations 0
Phase-1 volume fraction = 0.5  Min(alpha.phase1) = 0  Max(alpha.phase1) = 1
MULES: Correcting alpha.phase1
MULES: Correcting alpha.phase1
MULES: Correcting alpha.phase1
Phase-1 volume fraction = 0.5  Min(alpha.phase1) = 0  Max(alpha.phase1) = 1
smoothSolver:  Solving for alpha.phase1, Initial residual = 4.28723176e-22, Final residual = 4.28723176e-22, No Iterations 0
Phase-1 volume fraction = 0.5  Min(alpha.phase1) = 0  Max(alpha.phase1) = 1
MULES: Correcting alpha.phase1
MULES: Correcting alpha.phase1
MULES: Correcting alpha.phase1
Phase-1 volume fraction = 0.5  Min(alpha.phase1) = 0  Max(alpha.phase1) = 1
iterator_distance 	2.486795986e-06
Beam: 0
Beam: 1
Beam: 2
Beam: 3
Beam: 4
Beam: 5
Beam: 6
Beam: 7
Beam: 8
Beam: 9
Beam: 10
Beam: 11
Beam: 12
Beam: 13
Beam: 14
Beam: 15
Beam: 16
Beam: 17
Beam: 18
Beam: 19
Beam: 20
Beam: 21
Beam: 22
Beam: 23
Beam: 24
Beam: 25
Beam: 26
Beam: 27
Beam: 28
Beam: 29
Beam: 30
Beam: 31
Beam: 32
Beam: 33
Beam: 34
Beam: 35
Beam: 36
Beam: 37
Beam: 38
Beam: 39
Beam: 40
Beam: 41
Beam: 42
Beam: 43
Beam: 44
Beam: 45
Beam: 46
Beam: 47
Beam: 48
Beam: 49
Beam: 50
Beam: 51
Beam: 52
Beam: 53
Beam: 54
Beam: 55
Beam: 56
Beam: 57
Beam: 58
Beam: 59
Beam: 60
Beam: 61
Beam: 62
Beam: 63
Beam: 64
Beam: 65
Beam: 66
Beam: 67
Beam: 68
Beam: 69
Beam: 70
Beam: 71
Beam: 72
Beam: 73
Beam: 74
Beam: 75
Beam: 76
Beam: 77
Beam: 78
Beam: 79
Beam: 80
Beam: 81
Beam: 82
Beam: 83
Beam: 84
Beam: 85
Beam: 86
Beam: 87
Beam: 88
Beam: 89
Beam: 90
Beam: 91
Beam: 92
Beam: 93
Beam: 94
Beam: 95
Beam: 96
Beam: 97
Beam: 98
Beam: 99
Beam: 100
Beam: 101
Beam: 102
Beam: 103
Beam: 104
Beam: 105
Beam: 106
Beam: 107
Beam: 108
smoothSolver:  Solving for Uy, Initial residual = 2.778359504e-07, Final residual = 8.81981213e-17, No Iterations 5
smoothSolver:  Solving for Uz, Initial residual = 0.000459557616, Final residual = 2.487057986e-18, No Iterations 5
smoothSolver:  Solving for Temperature, Initial residual = 0.003441916104, Final residual = 4.383859787e-12, No Iterations 5
Correcting epsilon1, mean residual = 0, max residual = 0
GAMG:  Solving for p_rgh, Initial residual = 0.004293437359, Final residual = 6.891149361e-10, No Iterations 25
time step continuity errors : sum local = 2.657522131e-23, global = 1.562616516e-25, cumulative = -4.286996107e-25
GAMG:  Solving for p_rgh, Initial residual = 5.380682399e-05, Final residual = 8.026679884e-10, No Iterations 13
time step continuity errors : sum local = 3.132976273e-23, global = 3.684582606e-26, cumulative = -3.918537846e-25
GAMGPCG:  Solving for p_rgh, Initial residual = 1.220768717e-07, Final residual = 1.382806695e-10, No Iterations 1
time step continuity errors : sum local = 5.398087537e-24, global = -3.711660482e-26, cumulative = -4.289703895e-25
ExecutionTime = 772.71 s  ClockTime = 792 s

Courant Number mean: 1.495679547e-16 max: 2.010539751e-14
Interface Courant Number mean: 0 max: 0
deltaT = 1e-07
Time = 7.4e-06

smoothSolver:  Solving for alpha.phase1, Initial residual = 4.300625233e-22, Final residual = 4.300625233e-22, No Iterations 0
Phase-1 volume fraction = 0.5  Min(alpha.phase1) = 0  Max(alpha.phase1) = 1
MULES: Correcting alpha.phase1
MULES: Correcting alpha.phase1
MULES: Correcting alpha.phase1
Phase-1 volume fraction = 0.5  Min(alpha.phase1) = 0  Max(alpha.phase1) = 1
smoothSolver:  Solving for alpha.phase1, Initial residual = 4.300625233e-22, Final residual = 4.300625233e-22, No Iterations 0
Phase-1 volume fraction = 0.5  Min(alpha.phase1) = 0  Max(alpha.phase1) = 1
MULES: Correcting alpha.phase1
MULES: Correcting alpha.phase1
MULES: Correcting alpha.phase1
Phase-1 volume fraction = 0.5  Min(alpha.phase1) = 0  Max(alpha.phase1) = 1
smoothSolver:  Solving for alpha.phase1, Initial residual = 4.300625233e-22, Final residual = 4.300625233e-22, No Iterations 0
Phase-1 volume fraction = 0.5  Min(alpha.phase1) = 0  Max(alpha.phase1) = 1
MULES: Correcting alpha.phase1
MULES: Correcting alpha.phase1
MULES: Correcting alpha.phase1
Phase-1 volume fraction = 0.5  Min(alpha.phase1) = 0  Max(alpha.phase1) = 1
iterator_distance 	2.486795986e-06
Beam: 0
Beam: 1
Beam: 2
Beam: 3
Beam: 4
Beam: 5
Beam: 6
Beam: 7
Beam: 8
Beam: 9
Beam: 10
Beam: 11
Beam: 12
Beam: 13
Beam: 14
Beam: 15
Beam: 16
Beam: 17
Beam: 18
Beam: 19
Beam: 20
Beam: 21
Beam: 22
Beam: 23
Beam: 24
Beam: 25
Beam: 26
Beam: 27
Beam: 28
Beam: 29
Beam: 30
Beam: 31
Beam: 32
Beam: 33
Beam: 34
Beam: 35
Beam: 36
Beam: 37
Beam: 38
Beam: 39
Beam: 40
Beam: 41
Beam: 42
Beam: 43
Beam: 44
Beam: 45
Beam: 46
Beam: 47
Beam: 48
Beam: 49
Beam: 50
Beam: 51
Beam: 52
Beam: 53
Beam: 54
Beam: 55
Beam: 56
Beam: 57
Beam: 58
Beam: 59
Beam: 60
Beam: 61
Beam: 62
Beam: 63
Beam: 64
Beam: 65
Beam: 66
Beam: 67
Beam: 68
Beam: 69
Beam: 70
Beam: 71
Beam: 72
Beam: 73
Beam: 74
Beam: 75
Beam: 76
Beam: 77
Beam: 78
Beam: 79
Beam: 80
Beam: 81
Beam: 82
Beam: 83
Beam: 84
Beam: 85
Beam: 86
Beam: 87
Beam: 88
Beam: 89
Beam: 90
Beam: 91
Beam: 92
Beam: 93
Beam: 94
Beam: 95
Beam: 96
Beam: 97
Beam: 98
Beam: 99
Beam: 100
Beam: 101
Beam: 102
Beam: 103
Beam: 104
Beam: 105
Beam: 106
Beam: 107
Beam: 108
smoothSolver:  Solving for Uy, Initial residual = 2.777749994e-07, Final residual = 8.744787694e-17, No Iterations 5
smoothSolver:  Solving for Uz, Initial residual = 0.0004390785206, Final residual = 2.387283611e-18, No Iterations 5
smoothSolver:  Solving for Temperature, Initial residual = 0.003399272565, Final residual = 4.331613639e-12, No Iterations 5
Correcting epsilon1, mean residual = 0, max residual = 0
GAMG:  Solving for p_rgh, Initial residual = 0.004249763411, Final residual = 7.06987923e-10, No Iterations 25
time step continuity errors : sum local = 2.768685606e-23, global = 1.679645088e-25, cumulative = -2.610058807e-25
GAMG:  Solving for p_rgh, Initial residual = 5.315334115e-05, Final residual = 8.013082337e-10, No Iterations 13
time step continuity errors : sum local = 3.175629805e-23, global = 3.935444454e-26, cumulative = -2.216514361e-25
GAMGPCG:  Solving for p_rgh, Initial residual = 1.208338585e-07, Final residual = 1.379723837e-10, No Iterations 1
time step continuity errors : sum local = 5.468665185e-24, global = -3.704623789e-26, cumulative = -2.58697674e-25
ExecutionTime = 782.42 s  ClockTime = 802 s

Courant Number mean: 1.549602912e-16 max: 2.079329934e-14
Interface Courant Number mean: 0 max: 0
deltaT = 1e-07
Time = 7.5e-06

smoothSolver:  Solving for alpha.phase1, Initial residual = 4.31200715e-22, Final residual = 4.31200715e-22, No Iterations 0
Phase-1 volume fraction = 0.5  Min(alpha.phase1) = 0  Max(alpha.phase1) = 1
MULES: Correcting alpha.phase1
MULES: Correcting alpha.phase1
MULES: Correcting alpha.phase1
Phase-1 volume fraction = 0.5  Min(alpha.phase1) = 0  Max(alpha.phase1) = 1
smoothSolver:  Solving for alpha.phase1, Initial residual = 4.31200715e-22, Final residual = 4.31200715e-22, No Iterations 0
Phase-1 volume fraction = 0.5  Min(alpha.phase1) = 0  Max(alpha.phase1) = 1
MULES: Correcting alpha.phase1
MULES: Correcting alpha.phase1
MULES: Correcting alpha.phase1
Phase-1 volume fraction = 0.5  Min(alpha.phase1) = 0  Max(alpha.phase1) = 1
smoothSolver:  Solving for alpha.phase1, Initial residual = 4.31200715e-22, Final residual = 4.31200715e-22, No Iterations 0
Phase-1 volume fraction = 0.5  Min(alpha.phase1) = 0  Max(alpha.phase1) = 1
MULES: Correcting alpha.phase1
MULES: Correcting alpha.phase1
MULES: Correcting alpha.phase1
Phase-1 volume fraction = 0.5  Min(alpha.phase1) = 0  Max(alpha.phase1) = 1
iterator_distance 	2.486795986e-06
Beam: 0
Beam: 1
Beam: 2
Beam: 3
Beam: 4
Beam: 5
Beam: 6
Beam: 7
Beam: 8
Beam: 9
Beam: 10
Beam: 11
Beam: 12
Beam: 13
Beam: 14
Beam: 15
Beam: 16
Beam: 17
Beam: 18
Beam: 19
Beam: 20
Beam: 21
Beam: 22
Beam: 23
Beam: 24
Beam: 25
Beam: 26
Beam: 27
Beam: 28
Beam: 29
Beam: 30
Beam: 31
Beam: 32
Beam: 33
Beam: 34
Beam: 35
Beam: 36
Beam: 37
Beam: 38
Beam: 39
Beam: 40
Beam: 41
Beam: 42
Beam: 43
Beam: 44
Beam: 45
Beam: 46
Beam: 47
Beam: 48
Beam: 49
Beam: 50
Beam: 51
Beam: 52
Beam: 53
Beam: 54
Beam: 55
Beam: 56
Beam: 57
Beam: 58
Beam: 59
Beam: 60
Beam: 61
Beam: 62
Beam: 63
Beam: 64
Beam: 65
Beam: 66
Beam: 67
Beam: 68
Beam: 69
Beam: 70
Beam: 71
Beam: 72
Beam: 73
Beam: 74
Beam: 75
Beam: 76
Beam: 77
Beam: 78
Beam: 79
Beam: 80
Beam: 81
Beam: 82
Beam: 83
Beam: 84
Beam: 85
Beam: 86
Beam: 87
Beam: 88
Beam: 89
Beam: 90
Beam: 91
Beam: 92
Beam: 93
Beam: 94
Beam: 95
Beam: 96
Beam: 97
Beam: 98
Beam: 99
Beam: 100
Beam: 101
Beam: 102
Beam: 103
Beam: 104
Beam: 105
Beam: 106
Beam: 107
smoothSolver:  Solving for Uy, Initial residual = 2.778736493e-07, Final residual = 8.695798854e-17, No Iterations 5
smoothSolver:  Solving for Uz, Initial residual = 0.0004208716796, Final residual = 2.085516681e-18, No Iterations 5
smoothSolver:  Solving for Temperature, Initial residual = 0.003357017707, Final residual = 4.233828008e-12, No Iterations 5
Correcting epsilon1, mean residual = 0, max residual = 0
GAMG:  Solving for p_rgh, Initial residual = 0.004207542665, Final residual = 7.33255746e-10, No Iterations 25
time step continuity errors : sum local = 2.915490834e-23, global = 1.984951335e-25, cumulative = -6.020254055e-26
GAMG:  Solving for p_rgh, Initial residual = 5.251511178e-05, Final residual = 8.000697523e-10, No Iterations 13
time step continuity errors : sum local = 3.21870449e-23, global = 4.200378435e-26, cumulative = -1.819875619e-26
GAMGPCG:  Solving for p_rgh, Initial residual = 1.196421844e-07, Final residual = 1.376753318e-10, No Iterations 1
time step continuity errors : sum local = 5.539550589e-24, global = -3.690121223e-26, cumulative = -5.509996842e-26
ExecutionTime = 793.31 s  ClockTime = 813 s

Courant Number mean: 1.604593252e-16 max: 2.149185379e-14
Interface Courant Number mean: 0 max: 0
deltaT = 1e-07
Time = 7.6e-06

smoothSolver:  Solving for alpha.phase1, Initial residual = 4.323774324e-22, Final residual = 4.323774324e-22, No Iterations 0
Phase-1 volume fraction = 0.5  Min(alpha.phase1) = 0  Max(alpha.phase1) = 1
MULES: Correcting alpha.phase1
MULES: Correcting alpha.phase1
MULES: Correcting alpha.phase1
Phase-1 volume fraction = 0.5  Min(alpha.phase1) = 0  Max(alpha.phase1) = 1
smoothSolver:  Solving for alpha.phase1, Initial residual = 4.323774324e-22, Final residual = 4.323774324e-22, No Iterations 0
Phase-1 volume fraction = 0.5  Min(alpha.phase1) = 0  Max(alpha.phase1) = 1
MULES: Correcting alpha.phase1
MULES: Correcting alpha.phase1
MULES: Correcting alpha.phase1
Phase-1 volume fraction = 0.5  Min(alpha.phase1) = 0  Max(alpha.phase1) = 1
smoothSolver:  Solving for alpha.phase1, Initial residual = 4.323774324e-22, Final residual = 4.323774324e-22, No Iterations 0
Phase-1 volume fraction = 0.5  Min(alpha.phase1) = 0  Max(alpha.phase1) = 1
MULES: Correcting alpha.phase1
MULES: Correcting alpha.phase1
MULES: Correcting alpha.phase1
Phase-1 volume fraction = 0.5  Min(alpha.phase1) = 0  Max(alpha.phase1) = 1
iterator_distance 	2.486795986e-06
Beam: 0
Beam: 1
Beam: 2
Beam: 3
Beam: 4
Beam: 5
Beam: 6
Beam: 7
Beam: 8
Beam: 9
Beam: 10
Beam: 11
Beam: 12
Beam: 13
Beam: 14
Beam: 15
Beam: 16
Beam: 17
Beam: 18
Beam: 19
Beam: 20
Beam: 21
Beam: 22
Beam: 23
Beam: 24
Beam: 25
Beam: 26
Beam: 27
Beam: 28
Beam: 29
Beam: 30
Beam: 31
Beam: 32
Beam: 33
Beam: 34
Beam: 35
Beam: 36
Beam: 37
Beam: 38
Beam: 39
Beam: 40
Beam: 41
Beam: 42
Beam: 43
Beam: 44
Beam: 45
Beam: 46
Beam: 47
Beam: 48
Beam: 49
Beam: 50
Beam: 51
Beam: 52
Beam: 53
Beam: 54
Beam: 55
Beam: 56
Beam: 57
Beam: 58
Beam: 59
Beam: 60
Beam: 61
Beam: 62
Beam: 63
Beam: 64
Beam: 65
Beam: 66
Beam: 67
Beam: 68
Beam: 69
Beam: 70
Beam: 71
Beam: 72
Beam: 73
Beam: 74
Beam: 75
Beam: 76
Beam: 77
Beam: 78
Beam: 79
Beam: 80
Beam: 81
Beam: 82
Beam: 83
Beam: 84
Beam: 85
Beam: 86
Beam: 87
Beam: 88
Beam: 89
Beam: 90
Beam: 91
Beam: 92
Beam: 93
Beam: 94
Beam: 95
Beam: 96
Beam: 97
Beam: 98
Beam: 99
Beam: 100
Beam: 101
Beam: 102
Beam: 103
Beam: 104
Beam: 105
Beam: 106
Beam: 107
Beam: 108
smoothSolver:  Solving for Uy, Initial residual = 2.779656727e-07, Final residual = 8.816043768e-17, No Iterations 5
smoothSolver:  Solving for Uz, Initial residual = 0.0004034851894, Final residual = 1.993221913e-18, No Iterations 5
smoothSolver:  Solving for Temperature, Initial residual = 0.00331603616, Final residual = 4.522544896e-12, No Iterations 5
Correcting epsilon1, mean residual = 0, max residual = 0
GAMG:  Solving for p_rgh, Initial residual = 0.004165187055, Final residual = 7.464766185e-10, No Iterations 25
time step continuity errors : sum local = 3.012991459e-23, global = 1.705249956e-25, cumulative = 1.154250271e-25
GAMG:  Solving for p_rgh, Initial residual = 5.188369465e-05, Final residual = 7.986875744e-10, No Iterations 13
time step continuity errors : sum local = 3.261249803e-23, global = 4.469851912e-26, cumulative = 1.601235463e-25
GAMGPCG:  Solving for p_rgh, Initial residual = 1.184798874e-07, Final residual = 1.373987789e-10, No Iterations 1
time step continuity errors : sum local = 5.611271263e-24, global = -3.6744097e-26, cumulative = 1.233794492e-25
ExecutionTime = 804.4 s  ClockTime = 825 s

Courant Number mean: 1.66074704e-16 max: 2.220091982e-14
Interface Courant Number mean: 0 max: 0
deltaT = 1e-07
Time = 7.7e-06

smoothSolver:  Solving for alpha.phase1, Initial residual = 4.333283193e-22, Final residual = 4.333283193e-22, No Iterations 0
Phase-1 volume fraction = 0.5  Min(alpha.phase1) = 0  Max(alpha.phase1) = 1
MULES: Correcting alpha.phase1
MULES: Correcting alpha.phase1
MULES: Correcting alpha.phase1
Phase-1 volume fraction = 0.5  Min(alpha.phase1) = 0  Max(alpha.phase1) = 1
smoothSolver:  Solving for alpha.phase1, Initial residual = 4.333283193e-22, Final residual = 4.333283193e-22, No Iterations 0
Phase-1 volume fraction = 0.5  Min(alpha.phase1) = 0  Max(alpha.phase1) = 1
MULES: Correcting alpha.phase1
MULES: Correcting alpha.phase1
MULES: Correcting alpha.phase1
Phase-1 volume fraction = 0.5  Min(alpha.phase1) = 0  Max(alpha.phase1) = 1
smoothSolver:  Solving for alpha.phase1, Initial residual = 4.333283193e-22, Final residual = 4.333283193e-22, No Iterations 0
Phase-1 volume fraction = 0.5  Min(alpha.phase1) = 0  Max(alpha.phase1) = 1
MULES: Correcting alpha.phase1
MULES: Correcting alpha.phase1
MULES: Correcting alpha.phase1
Phase-1 volume fraction = 0.5  Min(alpha.phase1) = 0  Max(alpha.phase1) = 1
iterator_distance 	2.486795986e-06
Beam: 0
Beam: 1
Beam: 2
Beam: 3
Beam: 4
Beam: 5
Beam: 6
Beam: 7
Beam: 8
Beam: 9
Beam: 10
Beam: 11
Beam: 12
Beam: 13
Beam: 14
Beam: 15
Beam: 16
Beam: 17
Beam: 18
Beam: 19
Beam: 20
Beam: 21
Beam: 22
Beam: 23
Beam: 24
Beam: 25
Beam: 26
Beam: 27
Beam: 28
Beam: 29
Beam: 30
Beam: 31
Beam: 32
Beam: 33
Beam: 34
Beam: 35
Beam: 36
Beam: 37
Beam: 38
Beam: 39
Beam: 40
Beam: 41
Beam: 42
Beam: 43
Beam: 44
Beam: 45
Beam: 46
Beam: 47
Beam: 48
Beam: 49
Beam: 50
