/*---------------------------------------------------------------------------*\
  =========                 |
  \\      /  F ield         | OpenFOAM: The Open Source CFD Toolbox
   \\    /   O peration     | Website:  https://openfoam.org
    \\  /    A nd           | Version:  6
     \\/     M anipulation  |
\*---------------------------------------------------------------------------*/
Build  : 6-fa1285188035
Exec   : laserAMFoam -parallel
Date   : Jan 31 2022
Time   : 15:55:17
Host   : "e-uxxs4ly5294"
PID    : 21246
I/O    : uncollated
Case   : /home/mbcx7tf3/OpenFOAM/custom_solvers/laserAMFoam/tutorials/Test2
nProcs : 6
Slaves : 
5
(
"e-uxxs4ly5294.21247"
"e-uxxs4ly5294.21248"
"e-uxxs4ly5294.21249"
"e-uxxs4ly5294.21250"
"e-uxxs4ly5294.21251"
)

Pstream initialized with:
    floatTransfer      : 0
    nProcsSimpleSum    : 0
    commsType          : nonBlocking
    polling iterations : 0
sigFpe : Enabling floating point exception trapping (FOAM_SIGFPE).
fileModificationChecking : Monitoring run-time modified files using timeStampMaster (fileModificationSkew 10)
allowSystemOperations : Allowing user-supplied system call operations

// * * * * * * * * * * * * * * * * * * * * * * * * * * * * * * * * * * * * * //
Create time

Create mesh for time = 0


PIMPLE: No convergence criteria found


PIMPLE: Operating solver in PISO mode

Reading field p_rgh

Reading field U

Reading/calculating face flux field phi

Reading transportProperties

Selecting incompressible transport model Newtonian
Selecting incompressible transport model Newtonian
Reading field Temperature

Selecting turbulence model type laminar
Selecting laminar stress model Stokes

Reading g

Reading hRef
Calculating field g.h

No MRF models present

No finite volume options present
GAMGPCG:  Solving for pcorr, Initial residual = 0, Final residual = 0, No Iterations 0
time step continuity errors : sum local = 0, global = 0, cumulative = 0
Courant Number mean: 0 max: 0

Starting time loop

Courant Number mean: 0 max: 0
Interface Courant Number mean: 0 max: 0
deltaT = 1.111111111e-05
Time = 1.111111111e-05

smoothSolver:  Solving for alpha.phase1, Initial residual = 0, Final residual = 0, No Iterations 0
Phase-1 volume fraction = 0.625  Min(alpha.phase1) = 0  Max(alpha.phase1) = 1
MULES: Correcting alpha.phase1
MULES: Correcting alpha.phase1
MULES: Correcting alpha.phase1
Phase-1 volume fraction = 0.625  Min(alpha.phase1) = 0  Max(alpha.phase1) = 1
smoothSolver:  Solving for alpha.phase1, Initial residual = 0, Final residual = 0, No Iterations 0
Phase-1 volume fraction = 0.625  Min(alpha.phase1) = 0  Max(alpha.phase1) = 1
MULES: Correcting alpha.phase1
MULES: Correcting alpha.phase1
MULES: Correcting alpha.phase1
Phase-1 volume fraction = 0.625  Min(alpha.phase1) = 0  Max(alpha.phase1) = 1
smoothSolver:  Solving for alpha.phase1, Initial residual = 0, Final residual = 0, No Iterations 0
Phase-1 volume fraction = 0.625  Min(alpha.phase1) = 0  Max(alpha.phase1) = 1
MULES: Correcting alpha.phase1
MULES: Correcting alpha.phase1
MULES: Correcting alpha.phase1
Phase-1 volume fraction = 0.625  Min(alpha.phase1) = 0  Max(alpha.phase1) = 1
iterator_distance 	1.061032943e-05
Beam: 0
Beam: 1
Beam: 2
Beam: 3
Beam: 4
Beam: 5
Beam: 6
Beam: 7
Beam: 8
Beam: 9
Beam: 10
Beam: 11
Beam: 12
Beam: 13
Beam: 14
Beam: 15
Beam: 16
Beam: 17
Beam: 18
Beam: 19
Beam: 20
Beam: 21
smoothSolver:  Solving for Uy, Initial residual = 0.9883052165, Final residual = 9.852835461e-17, No Iterations 5
smoothSolver:  Solving for Uz, Initial residual = 3.089941598e-05, Final residual = 8.047153994e-22, No Iterations 5
smoothSolver:  Solving for Temperature, Initial residual = 1, Final residual = 4.535136134e-10, No Iterations 11
Correcting epsilon1, mean residual = 0, max residual = 0
GAMG:  Solving for p_rgh, Initial residual = 2.442295465e-12, Final residual = 2.442295465e-12, No Iterations 0
time step continuity errors : sum local = 4.240096293e-29, global = 3.109489266e-41, cumulative = 3.109489266e-41
GAMG:  Solving for p_rgh, Initial residual = 2.442295478e-12, Final residual = 2.442295478e-12, No Iterations 0
time step continuity errors : sum local = 4.240096315e-29, global = 3.109459569e-41, cumulative = 6.218948835e-41
GAMGPCG:  Solving for p_rgh, Initial residual = 2.442295479e-12, Final residual = 2.442295479e-12, No Iterations 0
time step continuity errors : sum local = 4.240096318e-29, global = 3.109474418e-41, cumulative = 9.328423253e-41
ExecutionTime = 0.56 s  ClockTime = 1 s

Courant Number mean: 2.238537308e-29 max: 1.668739009e-27
Interface Courant Number mean: 0 max: 0
deltaT = 1.26984127e-05
Time = 2.380952381e-05

smoothSolver:  Solving for alpha.phase1, Initial residual = 2.632333107e-32, Final residual = 2.632333107e-32, No Iterations 0
Phase-1 volume fraction = 0.625  Min(alpha.phase1) = 0  Max(alpha.phase1) = 1
MULES: Correcting alpha.phase1
MULES: Correcting alpha.phase1
MULES: Correcting alpha.phase1
Phase-1 volume fraction = 0.625  Min(alpha.phase1) = 0  Max(alpha.phase1) = 1
smoothSolver:  Solving for alpha.phase1, Initial residual = 2.632333107e-32, Final residual = 2.632333107e-32, No Iterations 0
Phase-1 volume fraction = 0.625  Min(alpha.phase1) = 0  Max(alpha.phase1) = 1
MULES: Correcting alpha.phase1
MULES: Correcting alpha.phase1
MULES: Correcting alpha.phase1
Phase-1 volume fraction = 0.625  Min(alpha.phase1) = 0  Max(alpha.phase1) = 1
smoothSolver:  Solving for alpha.phase1, Initial residual = 2.632333107e-32, Final residual = 2.632333107e-32, No Iterations 0
Phase-1 volume fraction = 0.625  Min(alpha.phase1) = 0  Max(alpha.phase1) = 1
MULES: Correcting alpha.phase1
MULES: Correcting alpha.phase1
MULES: Correcting alpha.phase1
Phase-1 volume fraction = 0.625  Min(alpha.phase1) = 0  Max(alpha.phase1) = 1
iterator_distance 	1.061032943e-05
Beam: 0
Beam: 1
Beam: 2
Beam: 3
Beam: 4
Beam: 5
Beam: 6
Beam: 7
Beam: 8
Beam: 9
Beam: 10
Beam: 11
Beam: 12
Beam: 13
Beam: 14
Beam: 15
Beam: 16
Beam: 17
Beam: 18
Beam: 19
Beam: 20
Beam: 21
smoothSolver:  Solving for Uy, Initial residual = 0.9999912851, Final residual = 3.221465359e-12, No Iterations 10
smoothSolver:  Solving for Uz, Initial residual = 1, Final residual = 1.880953311e-14, No Iterations 5
smoothSolver:  Solving for Temperature, Initial residual = 0.1898692061, Final residual = 3.656858165e-10, No Iterations 11
Correcting epsilon1, mean residual = 0, max residual = 0
GAMG:  Solving for p_rgh, Initial residual = 0.9999999498, Final residual = 4.278118004e-10, No Iterations 23
time step continuity errors : sum local = 1.69018803e-19, global = -3.254559834e-23, cumulative = -3.254559834e-23
GAMG:  Solving for p_rgh, Initial residual = 0.01453498571, Final residual = 5.721355308e-10, No Iterations 19
time step continuity errors : sum local = 1.679497915e-18, global = -3.50446115e-22, cumulative = -3.829917133e-22
GAMGPCG:  Solving for p_rgh, Initial residual = 0.0001749387409, Final residual = 1.622344744e-10, No Iterations 3
time step continuity errors : sum local = 4.386691087e-19, global = 5.281175284e-22, cumulative = 1.45125815e-22
ExecutionTime = 1.11 s  ClockTime = 2 s

Courant Number mean: 1.918440003e-11 max: 4.235365144e-09
Interface Courant Number mean: 0 max: 0
deltaT = 1.523809524e-05
Time = 3.904761905e-05

smoothSolver:  Solving for alpha.phase1, Initial residual = 7.687035133e-18, Final residual = 7.687035133e-18, No Iterations 0
Phase-1 volume fraction = 0.625  Min(alpha.phase1) = 0  Max(alpha.phase1) = 1
MULES: Correcting alpha.phase1
MULES: Correcting alpha.phase1
MULES: Correcting alpha.phase1
Phase-1 volume fraction = 0.625  Min(alpha.phase1) = 0  Max(alpha.phase1) = 1
smoothSolver:  Solving for alpha.phase1, Initial residual = 7.687035133e-18, Final residual = 7.687035133e-18, No Iterations 0
Phase-1 volume fraction = 0.625  Min(alpha.phase1) = 0  Max(alpha.phase1) = 1
MULES: Correcting alpha.phase1
MULES: Correcting alpha.phase1
MULES: Correcting alpha.phase1
Phase-1 volume fraction = 0.625  Min(alpha.phase1) = 0  Max(alpha.phase1) = 1
smoothSolver:  Solving for alpha.phase1, Initial residual = 7.687035133e-18, Final residual = 7.687035133e-18, No Iterations 0
Phase-1 volume fraction = 0.625  Min(alpha.phase1) = 0  Max(alpha.phase1) = 1
MULES: Correcting alpha.phase1
MULES: Correcting alpha.phase1
MULES: Correcting alpha.phase1
Phase-1 volume fraction = 0.625  Min(alpha.phase1) = 0  Max(alpha.phase1) = 1
iterator_distance 	1.061032943e-05
Beam: 0
Beam: 1
Beam: 2
Beam: 3
Beam: 4
Beam: 5
Beam: 6
Beam: 7
Beam: 8
Beam: 9
Beam: 10
Beam: 11
Beam: 12
Beam: 13
Beam: 14
Beam: 15
Beam: 16
Beam: 17
Beam: 18
Beam: 19
Beam: 20
Beam: 21
smoothSolver:  Solving for Uy, Initial residual = 1.441731934e-07, Final residual = 4.857886213e-13, No Iterations 5
smoothSolver:  Solving for Uz, Initial residual = 0.00018971896, Final residual = 1.584026747e-17, No Iterations 5
smoothSolver:  Solving for Temperature, Initial residual = 0.1151169948, Final residual = 3.528272101e-10, No Iterations 12
Correcting epsilon1, mean residual = 0, max residual = 0
GAMG:  Solving for p_rgh, Initial residual = 0.154416132, Final residual = 4.247229058e-10, No Iterations 22
time step continuity errors : sum local = 1.856998551e-18, global = -2.938985121e-22, cumulative = -1.487726971e-22
GAMG:  Solving for p_rgh, Initial residual = 0.009579340322, Final residual = 7.403187537e-10, No Iterations 19
time step continuity errors : sum local = 5.981733834e-18, global = -1.255992702e-21, cumulative = -1.404765399e-21
GAMGPCG:  Solving for p_rgh, Initial residual = 0.0001195047289, Final residual = 1.52422828e-10, No Iterations 3
time step continuity errors : sum local = 1.163264463e-18, global = 5.485792752e-22, cumulative = -8.561861237e-22
ExecutionTime = 1.65 s  ClockTime = 2 s

Courant Number mean: 1.100241469e-10 max: 2.172346639e-08
Interface Courant Number mean: 0 max: 0
deltaT = 1.523809524e-05
Time = 5.428571429e-05

smoothSolver:  Solving for alpha.phase1, Initial residual = 1.448072485e-17, Final residual = 1.448072485e-17, No Iterations 0
Phase-1 volume fraction = 0.625  Min(alpha.phase1) = 0  Max(alpha.phase1) = 1
MULES: Correcting alpha.phase1
MULES: Correcting alpha.phase1
MULES: Correcting alpha.phase1
Phase-1 volume fraction = 0.625  Min(alpha.phase1) = 0  Max(alpha.phase1) = 1
smoothSolver:  Solving for alpha.phase1, Initial residual = 1.448072485e-17, Final residual = 1.448072485e-17, No Iterations 0
Phase-1 volume fraction = 0.625  Min(alpha.phase1) = 0  Max(alpha.phase1) = 1
MULES: Correcting alpha.phase1
MULES: Correcting alpha.phase1
MULES: Correcting alpha.phase1
Phase-1 volume fraction = 0.625  Min(alpha.phase1) = 0  Max(alpha.phase1) = 1
smoothSolver:  Solving for alpha.phase1, Initial residual = 1.448072485e-17, Final residual = 1.448072485e-17, No Iterations 0
Phase-1 volume fraction = 0.625  Min(alpha.phase1) = 0  Max(alpha.phase1) = 1
MULES: Correcting alpha.phase1
MULES: Correcting alpha.phase1
MULES: Correcting alpha.phase1
Phase-1 volume fraction = 0.625  Min(alpha.phase1) = 0  Max(alpha.phase1) = 1
iterator_distance 	1.061032943e-05
Beam: 0
Beam: 1
Beam: 2
Beam: 3
Beam: 4
Beam: 5
Beam: 6
Beam: 7
Beam: 8
Beam: 9
Beam: 10
Beam: 11
Beam: 12
Beam: 13
Beam: 14
Beam: 15
Beam: 16
Beam: 17
Beam: 18
Beam: 19
Beam: 20
Beam: 21
smoothSolver:  Solving for Uy, Initial residual = 5.015926953e-08, Final residual = 1.999398447e-13, No Iterations 5
smoothSolver:  Solving for Uz, Initial residual = 3.696947259e-05, Final residual = 4.648519172e-18, No Iterations 5
smoothSolver:  Solving for Temperature, Initial residual = 0.07258799757, Final residual = 9.161939641e-10, No Iterations 11
Correcting epsilon1, mean residual = 0, max residual = 0
GAMG:  Solving for p_rgh, Initial residual = 0.08039597474, Final residual = 9.749255596e-10, No Iterations 21
time step continuity errors : sum local = 8.090079175e-18, global = 6.397084225e-22, cumulative = -2.164777013e-22
GAMG:  Solving for p_rgh, Initial residual = 0.006580340805, Final residual = 7.799414036e-10, No Iterations 19
time step continuity errors : sum local = 9.421769529e-18, global = -2.114220635e-21, cumulative = -2.330698336e-21
GAMGPCG:  Solving for p_rgh, Initial residual = 7.650129649e-05, Final residual = 1.272087861e-10, No Iterations 3
time step continuity errors : sum local = 1.473931063e-18, global = -4.369318049e-21, cumulative = -6.700016385e-21
ExecutionTime = 2.19 s  ClockTime = 3 s

Courant Number mean: 2.976232026e-10 max: 5.296017025e-08
Interface Courant Number mean: 0 max: 0
deltaT = 1.523809524e-05
Time = 6.952380952e-05

smoothSolver:  Solving for alpha.phase1, Initial residual = 2.063305082e-17, Final residual = 2.063305082e-17, No Iterations 0
Phase-1 volume fraction = 0.625  Min(alpha.phase1) = 0  Max(alpha.phase1) = 1
MULES: Correcting alpha.phase1
MULES: Correcting alpha.phase1
MULES: Correcting alpha.phase1
Phase-1 volume fraction = 0.625  Min(alpha.phase1) = 0  Max(alpha.phase1) = 1
smoothSolver:  Solving for alpha.phase1, Initial residual = 2.063305082e-17, Final residual = 2.063305082e-17, No Iterations 0
Phase-1 volume fraction = 0.625  Min(alpha.phase1) = 0  Max(alpha.phase1) = 1
MULES: Correcting alpha.phase1
MULES: Correcting alpha.phase1
MULES: Correcting alpha.phase1
Phase-1 volume fraction = 0.625  Min(alpha.phase1) = 0  Max(alpha.phase1) = 1
smoothSolver:  Solving for alpha.phase1, Initial residual = 2.063305082e-17, Final residual = 2.063305082e-17, No Iterations 0
Phase-1 volume fraction = 0.625  Min(alpha.phase1) = 0  Max(alpha.phase1) = 1
MULES: Correcting alpha.phase1
MULES: Correcting alpha.phase1
MULES: Correcting alpha.phase1
Phase-1 volume fraction = 0.625  Min(alpha.phase1) = 0  Max(alpha.phase1) = 1
iterator_distance 	1.061032943e-05
Beam: 0
Beam: 1
Beam: 2
Beam: 3
Beam: 4
Beam: 5
Beam: 6
Beam: 7
Beam: 8
Beam: 9
Beam: 10
Beam: 11
Beam: 12
Beam: 13
Beam: 14
Beam: 15
Beam: 16
Beam: 17
Beam: 18
Beam: 19
Beam: 20
Beam: 21
Beam: 22
smoothSolver:  Solving for Uy, Initial residual = 1.081774969e-08, Final residual = 4.795153737e-14, No Iterations 5
smoothSolver:  Solving for Uz, Initial residual = 1.091181662e-05, Final residual = 1.856709623e-18, No Iterations 5
smoothSolver:  Solving for Temperature, Initial residual = 0.05285784896, Final residual = 6.716156789e-10, No Iterations 11
Correcting epsilon1, mean residual = 0, max residual = 0
GAMG:  Solving for p_rgh, Initial residual = 0.04339619986, Final residual = 7.92605038e-10, No Iterations 21
time step continuity errors : sum local = 9.599576962e-18, global = 1.29528718e-21, cumulative = -5.404729205e-21
GAMG:  Solving for p_rgh, Initial residual = 0.004493030347, Final residual = 6.972887186e-10, No Iterations 19
time step continuity errors : sum local = 1.067615664e-17, global = -2.573825284e-21, cumulative = -7.97855449e-21
GAMGPCG:  Solving for p_rgh, Initial residual = 5.010499978e-05, Final residual = 9.804519619e-11, No Iterations 3
time step continuity errors : sum local = 1.458081859e-18, global = -3.820115579e-21, cumulative = -1.179867007e-20
ExecutionTime = 2.75 s  ClockTime = 3 s

Courant Number mean: 6.060311154e-10 max: 9.864833125e-08
Interface Courant Number mean: 0 max: 0
deltaT = 1.523809524e-05
Time = 8.476190476e-05

smoothSolver:  Solving for alpha.phase1, Initial residual = 2.61290113e-17, Final residual = 2.61290113e-17, No Iterations 0
Phase-1 volume fraction = 0.625  Min(alpha.phase1) = 0  Max(alpha.phase1) = 1
MULES: Correcting alpha.phase1
MULES: Correcting alpha.phase1
MULES: Correcting alpha.phase1
Phase-1 volume fraction = 0.625  Min(alpha.phase1) = 0  Max(alpha.phase1) = 1
smoothSolver:  Solving for alpha.phase1, Initial residual = 2.61290113e-17, Final residual = 2.61290113e-17, No Iterations 0
Phase-1 volume fraction = 0.625  Min(alpha.phase1) = 0  Max(alpha.phase1) = 1
MULES: Correcting alpha.phase1
MULES: Correcting alpha.phase1
MULES: Correcting alpha.phase1
Phase-1 volume fraction = 0.625  Min(alpha.phase1) = 0  Max(alpha.phase1) = 1
smoothSolver:  Solving for alpha.phase1, Initial residual = 2.61290113e-17, Final residual = 2.61290113e-17, No Iterations 0
Phase-1 volume fraction = 0.625  Min(alpha.phase1) = 0  Max(alpha.phase1) = 1
MULES: Correcting alpha.phase1
MULES: Correcting alpha.phase1
MULES: Correcting alpha.phase1
Phase-1 volume fraction = 0.625  Min(alpha.phase1) = 0  Max(alpha.phase1) = 1
iterator_distance 	1.061032943e-05
Beam: 0
Beam: 1
Beam: 2
Beam: 3
Beam: 4
Beam: 5
Beam: 6
Beam: 7
Beam: 8
Beam: 9
Beam: 10
Beam: 11
Beam: 12
Beam: 13
Beam: 14
Beam: 15
Beam: 16
Beam: 17
Beam: 18
Beam: 19
Beam: 20
Beam: 21
Beam: 22
smoothSolver:  Solving for Uy, Initial residual = 4.248647965e-09, Final residual = 2.026030015e-14, No Iterations 5
smoothSolver:  Solving for Uz, Initial residual = 4.415534663e-06, Final residual = 9.622948675e-19, No Iterations 5
smoothSolver:  Solving for Temperature, Initial residual = 0.04150563627, Final residual = 5.326660579e-10, No Iterations 11
Correcting epsilon1, mean residual = 0, max residual = 0
GAMG:  Solving for p_rgh, Initial residual = 0.02725573659, Final residual = 6.718068044e-10, No Iterations 21
time step continuity errors : sum local = 1.026991332e-17, global = 1.693057431e-21, cumulative = -1.010561264e-20
GAMG:  Solving for p_rgh, Initial residual = 0.003280307788, Final residual = 6.296100619e-10, No Iterations 19
time step continuity errors : sum local = 1.135141683e-17, global = -2.955421423e-21, cumulative = -1.306103406e-20
GAMGPCG:  Solving for p_rgh, Initial residual = 3.514902148e-05, Final residual = 7.944092687e-11, No Iterations 3
time step continuity errors : sum local = 1.401242194e-18, global = 2.906447946e-21, cumulative = -1.015458612e-20
ExecutionTime = 3.3 s  ClockTime = 4 s

Courant Number mean: 1.050539021e-09 max: 1.578239367e-07
Interface Courant Number mean: 0 max: 0
deltaT = 1.523809524e-05
Time = 0.0001

smoothSolver:  Solving for alpha.phase1, Initial residual = 3.08269662e-17, Final residual = 3.08269662e-17, No Iterations 0
Phase-1 volume fraction = 0.625  Min(alpha.phase1) = 0  Max(alpha.phase1) = 1
MULES: Correcting alpha.phase1
MULES: Correcting alpha.phase1
MULES: Correcting alpha.phase1
Phase-1 volume fraction = 0.625  Min(alpha.phase1) = 0  Max(alpha.phase1) = 1
smoothSolver:  Solving for alpha.phase1, Initial residual = 3.08269662e-17, Final residual = 3.08269662e-17, No Iterations 0
Phase-1 volume fraction = 0.625  Min(alpha.phase1) = 0  Max(alpha.phase1) = 1
MULES: Correcting alpha.phase1
MULES: Correcting alpha.phase1
MULES: Correcting alpha.phase1
Phase-1 volume fraction = 0.625  Min(alpha.phase1) = 0  Max(alpha.phase1) = 1
smoothSolver:  Solving for alpha.phase1, Initial residual = 3.08269662e-17, Final residual = 3.08269662e-17, No Iterations 0
Phase-1 volume fraction = 0.625  Min(alpha.phase1) = 0  Max(alpha.phase1) = 1
MULES: Correcting alpha.phase1
MULES: Correcting alpha.phase1
MULES: Correcting alpha.phase1
Phase-1 volume fraction = 0.625  Min(alpha.phase1) = 0  Max(alpha.phase1) = 1
iterator_distance 	1.061032943e-05
Beam: 0
Beam: 1
Beam: 2
Beam: 3
Beam: 4
Beam: 5
Beam: 6
Beam: 7
Beam: 8
Beam: 9
Beam: 10
Beam: 11
Beam: 12
Beam: 13
Beam: 14
Beam: 15
Beam: 16
Beam: 17
Beam: 18
Beam: 19
Beam: 20
Beam: 21
Beam: 22
smoothSolver:  Solving for Uy, Initial residual = 2.406498931e-09, Final residual = 1.209841872e-14, No Iterations 5
smoothSolver:  Solving for Uz, Initial residual = 2.155568527e-06, Final residual = 5.82927037e-19, No Iterations 5
smoothSolver:  Solving for Temperature, Initial residual = 0.03414811457, Final residual = 4.442172973e-10, No Iterations 11
Correcting epsilon1, mean residual = 0, max residual = 0
GAMG:  Solving for p_rgh, Initial residual = 0.01917132149, Final residual = 5.82378464e-10, No Iterations 21
time step continuity errors : sum local = 1.046789808e-17, global = 1.963908559e-21, cumulative = -8.190677557e-21
GAMG:  Solving for p_rgh, Initial residual = 0.002506170824, Final residual = 5.738089817e-10, No Iterations 19
time step continuity errors : sum local = 1.168396183e-17, global = -3.301711703e-21, cumulative = -1.149238926e-20
GAMGPCG:  Solving for p_rgh, Initial residual = 2.557127347e-05, Final residual = 6.631980016e-11, No Iterations 3
time step continuity errors : sum local = 1.327266057e-18, global = 2.671529193e-21, cumulative = -8.820860066e-21
ExecutionTime = 3.92 s  ClockTime = 4 s

Courant Number mean: 1.642029301e-09 max: 2.291984993e-07
Interface Courant Number mean: 0 max: 0
deltaT = 1.666666667e-05
Time = 0.0001166666667

smoothSolver:  Solving for alpha.phase1, Initial residual = 3.8062055e-17, Final residual = 3.8062055e-17, No Iterations 0
Phase-1 volume fraction = 0.625  Min(alpha.phase1) = 0  Max(alpha.phase1) = 1
MULES: Correcting alpha.phase1
MULES: Correcting alpha.phase1
MULES: Correcting alpha.phase1
Phase-1 volume fraction = 0.625  Min(alpha.phase1) = 0  Max(alpha.phase1) = 1
smoothSolver:  Solving for alpha.phase1, Initial residual = 3.8062055e-17, Final residual = 3.8062055e-17, No Iterations 0
Phase-1 volume fraction = 0.625  Min(alpha.phase1) = 0  Max(alpha.phase1) = 1
MULES: Correcting alpha.phase1
MULES: Correcting alpha.phase1
MULES: Correcting alpha.phase1
Phase-1 volume fraction = 0.625  Min(alpha.phase1) = 0  Max(alpha.phase1) = 1
smoothSolver:  Solving for alpha.phase1, Initial residual = 3.8062055e-17, Final residual = 3.8062055e-17, No Iterations 0
Phase-1 volume fraction = 0.625  Min(alpha.phase1) = 0  Max(alpha.phase1) = 1
MULES: Correcting alpha.phase1
MULES: Correcting alpha.phase1
MULES: Correcting alpha.phase1
Phase-1 volume fraction = 0.625  Min(alpha.phase1) = 0  Max(alpha.phase1) = 1
iterator_distance 	1.061032943e-05
Beam: 0
Beam: 1
Beam: 2
Beam: 3
Beam: 4
Beam: 5
Beam: 6
Beam: 7
Beam: 8
Beam: 9
Beam: 10
Beam: 11
Beam: 12
Beam: 13
Beam: 14
Beam: 15
Beam: 16
Beam: 17
Beam: 18
Beam: 19
Beam: 20
Beam: 21
Beam: 22
smoothSolver:  Solving for Uy, Initial residual = 1.687320295e-09, Final residual = 1.321284616e-14, No Iterations 5
smoothSolver:  Solving for Uz, Initial residual = 1.198220135e-06, Final residual = 5.849857151e-19, No Iterations 5
smoothSolver:  Solving for Temperature, Initial residual = 0.03160706989, Final residual = 9.885556357e-10, No Iterations 11
Correcting epsilon1, mean residual = 2.453030716e-06, max residual = 0.03532364195
smoothSolver:  Solving for Temperature, Initial residual = 0.0002889185897, Final residual = 2.1240271e-10, No Iterations 9
Correcting epsilon1, mean residual = 1.129106004e-06, max residual = 0.0162591263
smoothSolver:  Solving for Temperature, Initial residual = 0.0001331510629, Final residual = 4.792764606e-10, No Iterations 8
Correcting epsilon1, mean residual = 5.197164696e-07, max residual = 0.007483917088
smoothSolver:  Solving for Temperature, Initial residual = 6.132386217e-05, Final residual = 2.207454896e-10, No Iterations 8
Correcting epsilon1, mean residual = 2.392201971e-07, max residual = 0.003444770803
smoothSolver:  Solving for Temperature, Initial residual = 2.823424761e-05, Final residual = 4.991158924e-10, No Iterations 7
Correcting epsilon1, mean residual = 1.101108726e-07, max residual = 0.001585596549
smoothSolver:  Solving for Temperature, Initial residual = 1.299795256e-05, Final residual = 2.297819148e-10, No Iterations 7
Correcting epsilon1, mean residual = 5.068277671e-08, max residual = 0.0007298319773
smoothSolver:  Solving for Temperature, Initial residual = 5.983146043e-06, Final residual = 5.192044963e-10, No Iterations 6
Correcting epsilon1, mean residual = 2.332899825e-08, max residual = 0.0003359375714
smoothSolver:  Solving for Temperature, Initial residual = 2.754493384e-06, Final residual = 2.390309938e-10, No Iterations 6
Correcting epsilon1, mean residual = 1.07379121e-08, max residual = 0.0001546259327
smoothSolver:  Solving for Temperature, Initial residual = 1.267858221e-06, Final residual = 5.384769526e-10, No Iterations 5
Correcting epsilon1, mean residual = 4.942817365e-09, max residual = 7.117656934e-05
smoothSolver:  Solving for Temperature, Initial residual = 5.840452598e-07, Final residual = 2.480271013e-10, No Iterations 5
Correcting epsilon1, mean residual = 2.274898489e-09, max residual = 3.275853792e-05
smoothSolver:  Solving for Temperature, Initial residual = 2.688037855e-07, Final residual = 5.558644066e-10, No Iterations 4
Correcting epsilon1, mean residual = 1.04744074e-09, max residual = 1.508314651e-05
smoothSolver:  Solving for Temperature, Initial residual = 1.242082261e-07, Final residual = 2.567139863e-10, No Iterations 4
Correcting epsilon1, mean residual = 4.818437739e-10, max residual = 6.938550274e-06
smoothSolver:  Solving for Temperature, Initial residual = 5.713931451e-08, Final residual = 5.706845078e-10, No Iterations 3
Correcting epsilon1, mean residual = 2.222168485e-10, max residual = 3.199922586e-06
smoothSolver:  Solving for Temperature, Initial residual = 2.680382533e-08, Final residual = 2.671364376e-10, No Iterations 3
Correcting epsilon1, mean residual = 1.019254251e-10, max residual = 1.467726106e-06
smoothSolver:  Solving for Temperature, Initial residual = 1.229963737e-08, Final residual = 5.855414693e-10, No Iterations 2
Correcting epsilon1, mean residual = 4.751979337e-11, max residual = 6.842850176e-07
GAMG:  Solving for p_rgh, Initial residual = 0.01481682023, Final residual = 5.379308014e-10, No Iterations 21
time step continuity errors : sum local = 1.285638555e-17, global = 2.736637543e-21, cumulative = -6.084222524e-21
GAMG:  Solving for p_rgh, Initial residual = 0.002157032588, Final residual = 5.743737496e-10, No Iterations 19
time step continuity errors : sum local = 1.517214705e-17, global = -4.66072685e-21, cumulative = -1.074494937e-20
GAMGPCG:  Solving for p_rgh, Initial residual = 2.275937182e-05, Final residual = 6.630603611e-11, No Iterations 3
time step continuity errors : sum local = 1.72464455e-18, global = 3.344685779e-21, cumulative = -7.400263594e-21
ExecutionTime = 4.55 s  ClockTime = 5 s

Courant Number mean: 2.68803233e-09 max: 3.484098198e-07
Interface Courant Number mean: 0 max: 0
deltaT = 1.666666667e-05
Time = 0.0001333333333

smoothSolver:  Solving for alpha.phase1, Initial residual = 4.194610071e-17, Final residual = 4.194610071e-17, No Iterations 0
Phase-1 volume fraction = 0.625  Min(alpha.phase1) = 0  Max(alpha.phase1) = 1
MULES: Correcting alpha.phase1
MULES: Correcting alpha.phase1
MULES: Correcting alpha.phase1
Phase-1 volume fraction = 0.625  Min(alpha.phase1) = 0  Max(alpha.phase1) = 1
smoothSolver:  Solving for alpha.phase1, Initial residual = 4.194610071e-17, Final residual = 4.194610071e-17, No Iterations 0
Phase-1 volume fraction = 0.625  Min(alpha.phase1) = 0  Max(alpha.phase1) = 1
MULES: Correcting alpha.phase1
MULES: Correcting alpha.phase1
MULES: Correcting alpha.phase1
Phase-1 volume fraction = 0.625  Min(alpha.phase1) = 0  Max(alpha.phase1) = 1
smoothSolver:  Solving for alpha.phase1, Initial residual = 4.194610071e-17, Final residual = 4.194610071e-17, No Iterations 0
Phase-1 volume fraction = 0.625  Min(alpha.phase1) = 0  Max(alpha.phase1) = 1
MULES: Correcting alpha.phase1
MULES: Correcting alpha.phase1
MULES: Correcting alpha.phase1
Phase-1 volume fraction = 0.625  Min(alpha.phase1) = 0  Max(alpha.phase1) = 1
iterator_distance 	1.061032943e-05
Beam: 0
Beam: 1
Beam: 2
Beam: 3
Beam: 4
Beam: 5
Beam: 6
Beam: 7
Beam: 8
Beam: 9
Beam: 10
Beam: 11
Beam: 12
Beam: 13
Beam: 14
Beam: 15
Beam: 16
Beam: 17
Beam: 18
Beam: 19
Beam: 20
Beam: 21
Beam: 22
smoothSolver:  Solving for Uy, Initial residual = 1.41244878e-09, Final residual = 1.164453184e-14, No Iterations 5
smoothSolver:  Solving for Uz, Initial residual = 7.330798065e-07, Final residual = 4.239791943e-19, No Iterations 5
smoothSolver:  Solving for Temperature, Initial residual = 0.02719773252, Final residual = 8.465228579e-10, No Iterations 11
Correcting epsilon1, mean residual = 1.987299699e-05, max residual = 0.1306214281
smoothSolver:  Solving for Temperature, Initial residual = 0.002051393193, Final residual = 2.89888939e-10, No Iterations 10
Correcting epsilon1, mean residual = 6.122131112e-06, max residual = 0.04414831646
smoothSolver:  Solving for Temperature, Initial residual = 0.0006373887825, Final residual = 4.362977222e-10, No Iterations 9
Correcting epsilon1, mean residual = 1.863848215e-06, max residual = 0.01574133209
smoothSolver:  Solving for Temperature, Initial residual = 0.0001945650917, Final residual = 6.527366015e-10, No Iterations 8
Correcting epsilon1, mean residual = 7.172290823e-07, max residual = 0.006052459057
smoothSolver:  Solving for Temperature, Initial residual = 7.493162583e-05, Final residual = 9.540210116e-10, No Iterations 7
Correcting epsilon1, mean residual = 3.188567684e-07, max residual = 0.002550794603
smoothSolver:  Solving for Temperature, Initial residual = 3.332071548e-05, Final residual = 2.676990062e-10, No Iterations 7
Correcting epsilon1, mean residual = 1.496198103e-07, max residual = 0.001180490191
smoothSolver:  Solving for Temperature, Initial residual = 1.563625583e-05, Final residual = 3.856199873e-10, No Iterations 6
Correcting epsilon1, mean residual = 7.512643459e-08, max residual = 0.0005917064403
smoothSolver:  Solving for Temperature, Initial residual = 7.851479662e-06, Final residual = 7.475169682e-10, No Iterations 5
Correcting epsilon1, mean residual = 4.457901468e-08, max residual = 0.000314365978
smoothSolver:  Solving for Temperature, Initial residual = 4.659393485e-06, Final residual = 3.305737044e-10, No Iterations 5
Correcting epsilon1, mean residual = 2.618857698e-08, max residual = 0.000173443428
smoothSolver:  Solving for Temperature, Initial residual = 2.737168785e-06, Final residual = 9.119310099e-10, No Iterations 4
Correcting epsilon1, mean residual = 1.530469118e-08, max residual = 9.789405459e-05
smoothSolver:  Solving for Temperature, Initial residual = 1.600288123e-06, Final residual = 5.131598966e-10, No Iterations 4
Correcting epsilon1, mean residual = 8.918540841e-09, max residual = 5.597069006e-05
smoothSolver:  Solving for Temperature, Initial residual = 9.325608675e-07, Final residual = 3.123635721e-10, No Iterations 4
Correcting epsilon1, mean residual = 5.189349301e-09, max residual = 3.223373371e-05
smoothSolver:  Solving for Temperature, Initial residual = 5.426342497e-07, Final residual = 1.861011367e-10, No Iterations 4
Correcting epsilon1, mean residual = 3.017068379e-09, max residual = 1.863704513e-05
smoothSolver:  Solving for Temperature, Initial residual = 3.15489922e-07, Final residual = 6.720975371e-10, No Iterations 3
Correcting epsilon1, mean residual = 1.754212226e-09, max residual = 1.080103851e-05
smoothSolver:  Solving for Temperature, Initial residual = 1.839989691e-07, Final residual = 3.941465058e-10, No Iterations 3
Correcting epsilon1, mean residual = 1.018853533e-09, max residual = 6.265161663e-06
smoothSolver:  Solving for Temperature, Initial residual = 1.0687112e-07, Final residual = 2.289901986e-10, No Iterations 3
Correcting epsilon1, mean residual = 5.916905863e-10, max residual = 3.636010734e-06
smoothSolver:  Solving for Temperature, Initial residual = 6.206458932e-08, Final residual = 9.297192539e-10, No Iterations 2
Correcting epsilon1, mean residual = 3.452368647e-10, max residual = 2.118290227e-06
smoothSolver:  Solving for Temperature, Initial residual = 3.700926508e-08, Final residual = 5.598039793e-10, No Iterations 2
Correcting epsilon1, mean residual = 1.998002542e-10, max residual = 1.227206744e-06
smoothSolver:  Solving for Temperature, Initial residual = 2.144025761e-08, Final residual = 3.238899083e-10, No Iterations 2
Correcting epsilon1, mean residual = 1.156104035e-10, max residual = 7.107163776e-07
GAMG:  Solving for p_rgh, Initial residual = 0.01247718353, Final residual = 5.966364035e-10, No Iterations 21
time step continuity errors : sum local = 1.56881017e-17, global = 4.882993209e-21, cumulative = -2.517270385e-21
GAMG:  Solving for p_rgh, Initial residual = 0.001886136517, Final residual = 5.977907159e-10, No Iterations 19
time step continuity errors : sum local = 1.711023107e-17, global = -6.789661823e-21, cumulative = -9.306932208e-21
GAMGPCG:  Solving for p_rgh, Initial residual = 1.944867923e-05, Final residual = 6.115955197e-11, No Iterations 3
time step continuity errors : sum local = 1.726965593e-18, global = 3.937274075e-21, cumulative = -5.369658133e-21
ExecutionTime = 5.15 s  ClockTime = 6 s

Courant Number mean: 3.793630522e-09 max: 4.584298744e-07
Interface Courant Number mean: 0 max: 0
deltaT = 1.666666667e-05
Time = 0.00015

smoothSolver:  Solving for alpha.phase1, Initial residual = 4.535770428e-17, Final residual = 4.535770428e-17, No Iterations 0
Phase-1 volume fraction = 0.625  Min(alpha.phase1) = 0  Max(alpha.phase1) = 1
MULES: Correcting alpha.phase1
MULES: Correcting alpha.phase1
MULES: Correcting alpha.phase1
Phase-1 volume fraction = 0.625  Min(alpha.phase1) = 0  Max(alpha.phase1) = 1
smoothSolver:  Solving for alpha.phase1, Initial residual = 4.535770428e-17, Final residual = 4.535770428e-17, No Iterations 0
Phase-1 volume fraction = 0.625  Min(alpha.phase1) = 0  Max(alpha.phase1) = 1
MULES: Correcting alpha.phase1
MULES: Correcting alpha.phase1
MULES: Correcting alpha.phase1
Phase-1 volume fraction = 0.625  Min(alpha.phase1) = 0  Max(alpha.phase1) = 1
smoothSolver:  Solving for alpha.phase1, Initial residual = 4.535770428e-17, Final residual = 4.535770428e-17, No Iterations 0
Phase-1 volume fraction = 0.625  Min(alpha.phase1) = 0  Max(alpha.phase1) = 1
MULES: Correcting alpha.phase1
MULES: Correcting alpha.phase1
MULES: Correcting alpha.phase1
Phase-1 volume fraction = 0.625  Min(alpha.phase1) = 0  Max(alpha.phase1) = 1
iterator_distance 	1.061032943e-05
Beam: 0
Beam: 1
Beam: 2
Beam: 3
Beam: 4
Beam: 5
Beam: 6
Beam: 7
Beam: 8
Beam: 9
Beam: 10
Beam: 11
Beam: 12
Beam: 13
Beam: 14
Beam: 15
Beam: 16
Beam: 17
Beam: 18
Beam: 19
Beam: 20
Beam: 21
Beam: 22
smoothSolver:  Solving for Uy, Initial residual = 1.2687243e-09, Final residual = 9.468459374e-15, No Iterations 5
smoothSolver:  Solving for Uz, Initial residual = 6.445682498e-07, Final residual = 2.958583479e-19, No Iterations 5
smoothSolver:  Solving for Temperature, Initial residual = 0.02410929766, Final residual = 7.007879467e-10, No Iterations 11
Correcting epsilon1, mean residual = 2.869005151e-05, max residual = 0.1640886312
smoothSolver:  Solving for Temperature, Initial residual = 0.002659087578, Final residual = 2.557220878e-10, No Iterations 10
Correcting epsilon1, mean residual = 8.582845416e-06, max residual = 0.04628507116
smoothSolver:  Solving for Temperature, Initial residual = 0.0008042042578, Final residual = 3.730168571e-10, No Iterations 9
Correcting epsilon1, mean residual = 2.557801607e-06, max residual = 0.01287138784
smoothSolver:  Solving for Temperature, Initial residual = 0.0002404417221, Final residual = 5.732260052e-10, No Iterations 8
Correcting epsilon1, mean residual = 7.748402427e-07, max residual = 0.004333012409
smoothSolver:  Solving for Temperature, Initial residual = 7.290973709e-05, Final residual = 8.884013665e-10, No Iterations 7
Correcting epsilon1, mean residual = 2.394446951e-07, max residual = 0.001565027325
smoothSolver:  Solving for Temperature, Initial residual = 2.253835648e-05, Final residual = 2.797389432e-10, No Iterations 7
Correcting epsilon1, mean residual = 8.370179537e-08, max residual = 0.0006161361132
smoothSolver:  Solving for Temperature, Initial residual = 7.879321342e-06, Final residual = 4.665925465e-10, No Iterations 6
Correcting epsilon1, mean residual = 4.370096219e-08, max residual = 0.0002653618591
smoothSolver:  Solving for Temperature, Initial residual = 4.114222073e-06, Final residual = 8.301813859e-10, No Iterations 5
Correcting epsilon1, mean residual = 2.339928423e-08, max residual = 0.0001237093792
smoothSolver:  Solving for Temperature, Initial residual = 2.203455244e-06, Final residual = 3.182660285e-10, No Iterations 5
Correcting epsilon1, mean residual = 1.271129784e-08, max residual = 6.448807358e-05
smoothSolver:  Solving for Temperature, Initial residual = 1.196885757e-06, Final residual = 6.733573021e-10, No Iterations 4
Correcting epsilon1, mean residual = 6.961936278e-09, max residual = 3.823568787e-05
smoothSolver:  Solving for Temperature, Initial residual = 6.560019677e-07, Final residual = 3.107497763e-10, No Iterations 4
Correcting epsilon1, mean residual = 3.829413455e-09, max residual = 2.190773579e-05
smoothSolver:  Solving for Temperature, Initial residual = 3.607863748e-07, Final residual = 8.178566387e-10, No Iterations 3
Correcting epsilon1, mean residual = 2.112666202e-09, max residual = 1.233818688e-05
smoothSolver:  Solving for Temperature, Initial residual = 1.996979477e-07, Final residual = 4.398445029e-10, No Iterations 3
Correcting epsilon1, mean residual = 1.165935461e-09, max residual = 6.891189162e-06
smoothSolver:  Solving for Temperature, Initial residual = 1.10197548e-07, Final residual = 2.376699747e-10, No Iterations 3
Correcting epsilon1, mean residual = 6.439668791e-10, max residual = 3.829987038e-06
smoothSolver:  Solving for Temperature, Initial residual = 6.085880617e-08, Final residual = 8.685556459e-10, No Iterations 2
Correcting epsilon1, mean residual = 3.57579228e-10, max residual = 2.128701344e-06
smoothSolver:  Solving for Temperature, Initial residual = 3.453000774e-08, Final residual = 5.00135787e-10, No Iterations 2
Correcting epsilon1, mean residual = 1.9684911e-10, max residual = 1.177091024e-06
smoothSolver:  Solving for Temperature, Initial residual = 1.903093016e-08, Final residual = 2.748596382e-10, No Iterations 2
Correcting epsilon1, mean residual = 1.083680955e-10, max residual = 6.498042889e-07
GAMG:  Solving for p_rgh, Initial residual = 0.01145569572, Final residual = 9.98696084e-10, No Iterations 19
time step continuity errors : sum local = 2.835169236e-17, global = 1.775651682e-21, cumulative = -3.594006452e-21
GAMG:  Solving for p_rgh, Initial residual = 0.001507214729, Final residual = 5.361288117e-10, No Iterations 19
time step continuity errors : sum local = 1.602052527e-17, global = -1.279100331e-21, cumulative = -4.873106783e-21
GAMGPCG:  Solving for p_rgh, Initial residual = 2.100897954e-05, Final residual = 2.28884453e-11, No Iterations 3
time step continuity errors : sum local = 6.776209572e-19, global = 2.341302505e-21, cumulative = -2.531804278e-21
ExecutionTime = 5.74 s  ClockTime = 6 s

Courant Number mean: 5.11230254e-09 max: 5.783232374e-07
Interface Courant Number mean: 0 max: 0
deltaT = 1.666666667e-05
Time = 0.0001666666667

smoothSolver:  Solving for alpha.phase1, Initial residual = 4.737425453e-17, Final residual = 4.737425453e-17, No Iterations 0
Phase-1 volume fraction = 0.625  Min(alpha.phase1) = 0  Max(alpha.phase1) = 1
MULES: Correcting alpha.phase1
MULES: Correcting alpha.phase1
MULES: Correcting alpha.phase1
Phase-1 volume fraction = 0.625  Min(alpha.phase1) = 0  Max(alpha.phase1) = 1
smoothSolver:  Solving for alpha.phase1, Initial residual = 4.737425453e-17, Final residual = 4.737425453e-17, No Iterations 0
Phase-1 volume fraction = 0.625  Min(alpha.phase1) = 0  Max(alpha.phase1) = 1
MULES: Correcting alpha.phase1
MULES: Correcting alpha.phase1
MULES: Correcting alpha.phase1
Phase-1 volume fraction = 0.625  Min(alpha.phase1) = 0  Max(alpha.phase1) = 1
smoothSolver:  Solving for alpha.phase1, Initial residual = 4.737425453e-17, Final residual = 4.737425453e-17, No Iterations 0
Phase-1 volume fraction = 0.625  Min(alpha.phase1) = 0  Max(alpha.phase1) = 1
MULES: Correcting alpha.phase1
MULES: Correcting alpha.phase1
MULES: Correcting alpha.phase1
Phase-1 volume fraction = 0.625  Min(alpha.phase1) = 0  Max(alpha.phase1) = 1
iterator_distance 	1.061032943e-05
Beam: 0
Beam: 1
Beam: 2
Beam: 3
Beam: 4
Beam: 5
Beam: 6
Beam: 7
Beam: 8
Beam: 9
Beam: 10
Beam: 11
Beam: 12
Beam: 13
Beam: 14
Beam: 15
Beam: 16
Beam: 17
Beam: 18
Beam: 19
Beam: 20
Beam: 21
Beam: 22
smoothSolver:  Solving for Uy, Initial residual = 1.21182688e-09, Final residual = 9.188046544e-15, No Iterations 5
smoothSolver:  Solving for Uz, Initial residual = 3.814165702e-07, Final residual = 2.229641565e-19, No Iterations 5
smoothSolver:  Solving for Temperature, Initial residual = 0.02175586449, Final residual = 5.978755719e-10, No Iterations 11
Correcting epsilon1, mean residual = 3.862344693e-05, max residual = 0.1889532656
smoothSolver:  Solving for Temperature, Initial residual = 0.003263581667, Final residual = 2.179298823e-10, No Iterations 10
Correcting epsilon1, mean residual = 9.706431948e-06, max residual = 0.04566947711
smoothSolver:  Solving for Temperature, Initial residual = 0.0008308532618, Final residual = 2.231818728e-10, No Iterations 9
Correcting epsilon1, mean residual = 3.245134949e-06, max residual = 0.01420956107
smoothSolver:  Solving for Temperature, Initial residual = 0.0002785899568, Final residual = 9.659804308e-10, No Iterations 7
Correcting epsilon1, mean residual = 1.323116517e-06, max residual = 0.005720208371
smoothSolver:  Solving for Temperature, Initial residual = 0.0001136558214, Final residual = 1.862232376e-10, No Iterations 7
Correcting epsilon1, mean residual = 4.434667854e-07, max residual = 0.002688623044
smoothSolver:  Solving for Temperature, Initial residual = 3.809770087e-05, Final residual = 6.133686511e-10, No Iterations 6
Correcting epsilon1, mean residual = 2.137652792e-07, max residual = 0.001168294012
smoothSolver:  Solving for Temperature, Initial residual = 1.836580208e-05, Final residual = 3.601381583e-10, No Iterations 6
Correcting epsilon1, mean residual = 1.13378279e-07, max residual = 0.0005105884566
smoothSolver:  Solving for Temperature, Initial residual = 9.741204226e-06, Final residual = 8.795702579e-10, No Iterations 5
Correcting epsilon1, mean residual = 6.042880375e-08, max residual = 0.0002340483776
smoothSolver:  Solving for Temperature, Initial residual = 5.192575867e-06, Final residual = 4.149694752e-10, No Iterations 5
Correcting epsilon1, mean residual = 3.233089747e-08, max residual = 0.000125345407
smoothSolver:  Solving for Temperature, Initial residual = 2.778106336e-06, Final residual = 2.021834345e-10, No Iterations 5
Correcting epsilon1, mean residual = 1.73498119e-08, max residual = 7.029425773e-05
smoothSolver:  Solving for Temperature, Initial residual = 1.490803716e-06, Final residual = 5.259860647e-10, No Iterations 4
Correcting epsilon1, mean residual = 9.332817502e-09, max residual = 3.922201254e-05
smoothSolver:  Solving for Temperature, Initial residual = 8.023478262e-07, Final residual = 2.672423277e-10, No Iterations 4
Correcting epsilon1, mean residual = 5.028944592e-09, max residual = 2.176677164e-05
smoothSolver:  Solving for Temperature, Initial residual = 4.323273232e-07, Final residual = 7.898825429e-10, No Iterations 3
Correcting epsilon1, mean residual = 2.715017772e-09, max residual = 1.202289649e-05
smoothSolver:  Solving for Temperature, Initial residual = 2.340511192e-07, Final residual = 4.20375373e-10, No Iterations 3
Correcting epsilon1, mean residual = 1.466184652e-09, max residual = 6.616668134e-06
smoothSolver:  Solving for Temperature, Initial residual = 1.263878879e-07, Final residual = 2.229892499e-10, No Iterations 3
Correcting epsilon1, mean residual = 7.925331638e-10, max residual = 3.630447422e-06
smoothSolver:  Solving for Temperature, Initial residual = 6.831361447e-08, Final residual = 8.318699837e-10, No Iterations 2
Correcting epsilon1, mean residual = 4.307046227e-10, max residual = 1.993030723e-06
smoothSolver:  Solving for Temperature, Initial residual = 3.78359327e-08, Final residual = 4.675190642e-10, No Iterations 2
Correcting epsilon1, mean residual = 2.322527982e-10, max residual = 1.087538812e-06
smoothSolver:  Solving for Temperature, Initial residual = 2.042155879e-08, Final residual = 2.513447268e-10, No Iterations 2
Correcting epsilon1, mean residual = 1.252822829e-10, max residual = 5.923520184e-07
GAMG:  Solving for p_rgh, Initial residual = 0.01060285833, Final residual = 8.021765231e-10, No Iterations 19
time step continuity errors : sum local = 2.380601575e-17, global = 2.758619569e-22, cumulative = -2.255942321e-21
GAMG:  Solving for p_rgh, Initial residual = 0.001348374774, Final residual = 8.388270588e-10, No Iterations 18
time step continuity errors : sum local = 2.583636868e-17, global = 6.911545611e-21, cumulative = 4.65560329e-21
GAMGPCG:  Solving for p_rgh, Initial residual = 1.870598374e-05, Final residual = 1.655990497e-11, No Iterations 3
time step continuity errors : sum local = 5.064092745e-19, global = 6.702852224e-22, cumulative = 5.325888512e-21
ExecutionTime = 6.33 s  ClockTime = 7 s

Courant Number mean: 6.637172889e-09 max: 7.056910943e-07
Interface Courant Number mean: 0 max: 0
deltaT = 1.666666667e-05
Time = 0.0001833333333

smoothSolver:  Solving for alpha.phase1, Initial residual = 4.838953833e-17, Final residual = 4.838953833e-17, No Iterations 0
Phase-1 volume fraction = 0.625  Min(alpha.phase1) = 0  Max(alpha.phase1) = 1
MULES: Correcting alpha.phase1
MULES: Correcting alpha.phase1
MULES: Correcting alpha.phase1
Phase-1 volume fraction = 0.625  Min(alpha.phase1) = 0  Max(alpha.phase1) = 1
smoothSolver:  Solving for alpha.phase1, Initial residual = 4.838953833e-17, Final residual = 4.838953833e-17, No Iterations 0
Phase-1 volume fraction = 0.625  Min(alpha.phase1) = 0  Max(alpha.phase1) = 1
MULES: Correcting alpha.phase1
MULES: Correcting alpha.phase1
MULES: Correcting alpha.phase1
Phase-1 volume fraction = 0.625  Min(alpha.phase1) = 0  Max(alpha.phase1) = 1
smoothSolver:  Solving for alpha.phase1, Initial residual = 4.838953833e-17, Final residual = 4.838953833e-17, No Iterations 0
Phase-1 volume fraction = 0.625  Min(alpha.phase1) = 0  Max(alpha.phase1) = 1
MULES: Correcting alpha.phase1
MULES: Correcting alpha.phase1
MULES: Correcting alpha.phase1
Phase-1 volume fraction = 0.625  Min(alpha.phase1) = 0  Max(alpha.phase1) = 1
iterator_distance 	1.061032943e-05
Beam: 0
Beam: 1
Beam: 2
Beam: 3
Beam: 4
Beam: 5
Beam: 6
Beam: 7
Beam: 8
Beam: 9
Beam: 10
Beam: 11
Beam: 12
Beam: 13
Beam: 14
Beam: 15
Beam: 16
Beam: 17
Beam: 18
Beam: 19
Beam: 20
Beam: 21
Beam: 22
smoothSolver:  Solving for Uy, Initial residual = 0.0009088306785, Final residual = 4.962475471e-11, No Iterations 5
smoothSolver:  Solving for Uz, Initial residual = 2.374386587e-07, Final residual = 9.225158326e-17, No Iterations 5
smoothSolver:  Solving for Temperature, Initial residual = 0.01988565399, Final residual = 5.308817544e-10, No Iterations 11
Correcting epsilon1, mean residual = 4.888297978e-05, max residual = 0.2115027414
smoothSolver:  Solving for Temperature, Initial residual = 0.003806719901, Final residual = 9.292718996e-10, No Iterations 9
Correcting epsilon1, mean residual = 1.083418419e-05, max residual = 0.04327232072
smoothSolver:  Solving for Temperature, Initial residual = 0.0008563173871, Final residual = 2.081984083e-10, No Iterations 9
Correcting epsilon1, mean residual = 2.269443041e-06, max residual = 0.01127318495
smoothSolver:  Solving for Temperature, Initial residual = 0.0001799686316, Final residual = 2.226090808e-10, No Iterations 8
Correcting epsilon1, mean residual = 4.722362108e-07, max residual = 0.003479618942
smoothSolver:  Solving for Temperature, Initial residual = 3.747494837e-05, Final residual = 2.342278388e-10, No Iterations 7
Correcting epsilon1, mean residual = 1.855300918e-07, max residual = 0.001279212763
smoothSolver:  Solving for Temperature, Initial residual = 1.472526809e-05, Final residual = 2.78549354e-10, No Iterations 6
Correcting epsilon1, mean residual = 8.711417386e-08, max residual = 0.0004978043648
smoothSolver:  Solving for Temperature, Initial residual = 6.914548331e-06, Final residual = 2.767894264e-10, No Iterations 5
Correcting epsilon1, mean residual = 4.21025238e-08, max residual = 0.0002057959286
smoothSolver:  Solving for Temperature, Initial residual = 3.341992836e-06, Final residual = 8.853877327e-10, No Iterations 4
Correcting epsilon1, mean residual = 2.075162407e-08, max residual = 9.009169075e-05
smoothSolver:  Solving for Temperature, Initial residual = 1.647983857e-06, Final residual = 5.59619879e-10, No Iterations 4
Correcting epsilon1, mean residual = 1.035840382e-08, max residual = 4.139662432e-05
smoothSolver:  Solving for Temperature, Initial residual = 8.227273459e-07, Final residual = 3.321360855e-10, No Iterations 4
Correcting epsilon1, mean residual = 5.212642895e-09, max residual = 2.231910393e-05
smoothSolver:  Solving for Temperature, Initial residual = 4.140687428e-07, Final residual = 1.878223899e-10, No Iterations 4
Correcting epsilon1, mean residual = 2.636537912e-09, max residual = 1.181393571e-05
smoothSolver:  Solving for Temperature, Initial residual = 2.09451545e-07, Final residual = 5.660322324e-10, No Iterations 3
Correcting epsilon1, mean residual = 1.338699256e-09, max residual = 6.192283869e-06
smoothSolver:  Solving for Temperature, Initial residual = 1.068212829e-07, Final residual = 2.987092017e-10, No Iterations 3
Correcting epsilon1, mean residual = 6.802266133e-10, max residual = 3.216703648e-06
smoothSolver:  Solving for Temperature, Initial residual = 5.428965896e-08, Final residual = 9.54189019e-10, No Iterations 2
Correcting epsilon1, mean residual = 3.482677974e-10, max residual = 1.680751828e-06
smoothSolver:  Solving for Temperature, Initial residual = 2.859690128e-08, Final residual = 5.154860642e-10, No Iterations 2
Correcting epsilon1, mean residual = 1.763168053e-10, max residual = 8.598113979e-07
GAMG:  Solving for p_rgh, Initial residual = 0.406286186, Final residual = 6.637809577e-10, No Iterations 23
time step continuity errors : sum local = 2.520161847e-14, global = -1.044147093e-17, cumulative = -1.043614504e-17
GAMG:  Solving for p_rgh, Initial residual = 0.0001473552158, Final residual = 9.613002672e-10, No Iterations 14
time step continuity errors : sum local = 3.403251389e-12, global = -5.377429486e-17, cumulative = -6.42104399e-17
GAMGPCG:  Solving for p_rgh, Initial residual = 1.072522674e-05, Final residual = 3.094213626e-10, No Iterations 2
time step continuity errors : sum local = 9.208330922e-13, global = -9.209606504e-16, cumulative = -9.851710904e-16
ExecutionTime = 6.92 s  ClockTime = 7 s

Courant Number mean: 7.311813098e-06 max: 0.006921253766
Interface Courant Number mean: 0 max: 0
deltaT = 1.666666667e-05
Time = 0.0002

smoothSolver:  Solving for alpha.phase1, Initial residual = 5.052638784e-17, Final residual = 5.052638784e-17, No Iterations 0
Phase-1 volume fraction = 0.625  Min(alpha.phase1) = 0  Max(alpha.phase1) = 1
MULES: Correcting alpha.phase1
MULES: Correcting alpha.phase1
MULES: Correcting alpha.phase1
Phase-1 volume fraction = 0.625  Min(alpha.phase1) = 0  Max(alpha.phase1) = 1
smoothSolver:  Solving for alpha.phase1, Initial residual = 5.052638784e-17, Final residual = 5.052638784e-17, No Iterations 0
Phase-1 volume fraction = 0.625  Min(alpha.phase1) = 0  Max(alpha.phase1) = 1
MULES: Correcting alpha.phase1
MULES: Correcting alpha.phase1
MULES: Correcting alpha.phase1
Phase-1 volume fraction = 0.625  Min(alpha.phase1) = 0  Max(alpha.phase1) = 1
smoothSolver:  Solving for alpha.phase1, Initial residual = 5.052638784e-17, Final residual = 5.052638784e-17, No Iterations 0
Phase-1 volume fraction = 0.625  Min(alpha.phase1) = 0  Max(alpha.phase1) = 1
MULES: Correcting alpha.phase1
MULES: Correcting alpha.phase1
MULES: Correcting alpha.phase1
Phase-1 volume fraction = 0.625  Min(alpha.phase1) = 0  Max(alpha.phase1) = 1
iterator_distance 	1.061032943e-05
Beam: 0
Beam: 1
Beam: 2
Beam: 3
Beam: 4
Beam: 5
Beam: 6
Beam: 7
Beam: 8
Beam: 9
Beam: 10
Beam: 11
Beam: 12
Beam: 13
Beam: 14
Beam: 15
Beam: 16
Beam: 17
Beam: 18
Beam: 19
Beam: 20
Beam: 21
Beam: 22
smoothSolver:  Solving for Uy, Initial residual = 0.0002031986372, Final residual = 1.487552939e-11, No Iterations 5
smoothSolver:  Solving for Uz, Initial residual = 1.135295917e-10, Final residual = 1.135295917e-10, No Iterations 0
smoothSolver:  Solving for Temperature, Initial residual = 0.01838889709, Final residual = 4.825417096e-10, No Iterations 11
Correcting epsilon1, mean residual = 3.900823138e-05, max residual = 0.1974878834
smoothSolver:  Solving for Temperature, Initial residual = 0.002824213202, Final residual = 5.989143007e-10, No Iterations 9
Correcting epsilon1, mean residual = 1.04623364e-05, max residual = 0.05748392269
smoothSolver:  Solving for Temperature, Initial residual = 0.0007658808406, Final residual = 8.101519957e-10, No Iterations 8
Correcting epsilon1, mean residual = 1.978938262e-06, max residual = 0.01696260379
smoothSolver:  Solving for Temperature, Initial residual = 0.0001452899486, Final residual = 8.447070067e-10, No Iterations 7
Correcting epsilon1, mean residual = 6.093424396e-07, max residual = 0.005187368631
smoothSolver:  Solving for Temperature, Initial residual = 4.476312248e-05, Final residual = 2.650610152e-10, No Iterations 7
Correcting epsilon1, mean residual = 1.909312688e-07, max residual = 0.001629377427
smoothSolver:  Solving for Temperature, Initial residual = 1.402856102e-05, Final residual = 4.432634769e-10, No Iterations 6
Correcting epsilon1, mean residual = 6.10799457e-08, max residual = 0.0005318321048
smoothSolver:  Solving for Temperature, Initial residual = 4.488420867e-06, Final residual = 7.592891852e-10, No Iterations 5
Correcting epsilon1, mean residual = 2.565585322e-08, max residual = 0.0001826751756
smoothSolver:  Solving for Temperature, Initial residual = 1.885849307e-06, Final residual = 2.49325821e-10, No Iterations 5
Correcting epsilon1, mean residual = 1.122898587e-08, max residual = 6.670559579e-05
smoothSolver:  Solving for Temperature, Initial residual = 8.253332618e-07, Final residual = 5.390786208e-10, No Iterations 4
Correcting epsilon1, mean residual = 5.019990257e-09, max residual = 2.670782809e-05
smoothSolver:  Solving for Temperature, Initial residual = 3.694028996e-07, Final residual = 2.553101317e-10, No Iterations 4
Correcting epsilon1, mean residual = 2.278966348e-09, max residual = 1.142080601e-05
smoothSolver:  Solving for Temperature, Initial residual = 1.677115724e-07, Final residual = 6.55452518e-10, No Iterations 3
Correcting epsilon1, mean residual = 1.047975293e-09, max residual = 5.495637013e-06
smoothSolver:  Solving for Temperature, Initial residual = 7.765969052e-08, Final residual = 3.092864321e-10, No Iterations 3
Correcting epsilon1, mean residual = 4.850355968e-10, max residual = 2.766716447e-06
smoothSolver:  Solving for Temperature, Initial residual = 3.594924869e-08, Final residual = 8.116171711e-10, No Iterations 2
Correcting epsilon1, mean residual = 2.280235552e-10, max residual = 1.386463051e-06
smoothSolver:  Solving for Temperature, Initial residual = 1.75665756e-08, Final residual = 4.006856634e-10, No Iterations 2
Correcting epsilon1, mean residual = 1.058468785e-10, max residual = 6.7583073e-07
GAMG:  Solving for p_rgh, Initial residual = 0.01503556543, Final residual = 9.917589652e-10, No Iterations 19
time step continuity errors : sum local = 3.098077243e-12, global = 4.595772249e-16, cumulative = -5.255938654e-16
GAMG:  Solving for p_rgh, Initial residual = 0.0003143822679, Final residual = 7.618027325e-10, No Iterations 15
time step continuity errors : sum local = 6.381455841e-12, global = 8.085234509e-18, cumulative = -5.175086309e-16
GAMGPCG:  Solving for p_rgh, Initial residual = 2.113602082e-05, Final residual = 5.459433252e-10, No Iterations 2
time step continuity errors : sum local = 4.4193854e-12, global = 3.47313404e-17, cumulative = -4.827772905e-16
ExecutionTime = 7.57 s  ClockTime = 8 s

Courant Number mean: 8.802655111e-05 max: 0.1346233056
Interface Courant Number mean: 0 max: 0
deltaT = 1.666666667e-05
Time = 0.0002166666667

smoothSolver:  Solving for alpha.phase1, Initial residual = 5.56876682e-17, Final residual = 5.56876682e-17, No Iterations 0
Phase-1 volume fraction = 0.625  Min(alpha.phase1) = 0  Max(alpha.phase1) = 1
MULES: Correcting alpha.phase1
MULES: Correcting alpha.phase1
MULES: Correcting alpha.phase1
Phase-1 volume fraction = 0.625  Min(alpha.phase1) = 0  Max(alpha.phase1) = 1
smoothSolver:  Solving for alpha.phase1, Initial residual = 5.56876682e-17, Final residual = 5.56876682e-17, No Iterations 0
Phase-1 volume fraction = 0.625  Min(alpha.phase1) = 0  Max(alpha.phase1) = 1
MULES: Correcting alpha.phase1
MULES: Correcting alpha.phase1
MULES: Correcting alpha.phase1
Phase-1 volume fraction = 0.625  Min(alpha.phase1) = 0  Max(alpha.phase1) = 1
smoothSolver:  Solving for alpha.phase1, Initial residual = 5.56876682e-17, Final residual = 5.56876682e-17, No Iterations 0
Phase-1 volume fraction = 0.625  Min(alpha.phase1) = 0  Max(alpha.phase1) = 1
MULES: Correcting alpha.phase1
MULES: Correcting alpha.phase1
MULES: Correcting alpha.phase1
Phase-1 volume fraction = 0.625  Min(alpha.phase1) = 0  Max(alpha.phase1) = 1
iterator_distance 	1.061032943e-05
Beam: 0
Beam: 1
Beam: 2
Beam: 3
Beam: 4
Beam: 5
Beam: 6
Beam: 7
Beam: 8
Beam: 9
Beam: 10
Beam: 11
Beam: 12
Beam: 13
Beam: 14
Beam: 15
Beam: 16
Beam: 17
Beam: 18
Beam: 19
Beam: 20
Beam: 21
smoothSolver:  Solving for Uy, Initial residual = 5.525630386e-07, Final residual = 1.728288293e-13, No Iterations 5
smoothSolver:  Solving for Uz, Initial residual = 8.920558846e-11, Final residual = 8.920558846e-11, No Iterations 0
smoothSolver:  Solving for Temperature, Initial residual = 0.01705846611, Final residual = 4.519618974e-10, No Iterations 11
Correcting epsilon1, mean residual = 1.67132595e-05, max residual = 0.1218993292
smoothSolver:  Solving for Temperature, Initial residual = 0.001126588344, Final residual = 2.912437173e-10, No Iterations 9
Correcting epsilon1, mean residual = 5.878839795e-06, max residual = 0.04788834887
smoothSolver:  Solving for Temperature, Initial residual = 0.000398090826, Final residual = 5.722818801e-10, No Iterations 8
Correcting epsilon1, mean residual = 2.408428152e-06, max residual = 0.01963430942
smoothSolver:  Solving for Temperature, Initial residual = 0.0001633591556, Final residual = 2.348280313e-10, No Iterations 8
Correcting epsilon1, mean residual = 9.866790868e-07, max residual = 0.008050103218
smoothSolver:  Solving for Temperature, Initial residual = 6.697000537e-05, Final residual = 4.988430557e-10, No Iterations 7
Correcting epsilon1, mean residual = 4.042210151e-07, max residual = 0.003300560976
smoothSolver:  Solving for Temperature, Initial residual = 2.744418783e-05, Final residual = 2.044151654e-10, No Iterations 7
Correcting epsilon1, mean residual = 1.656003199e-07, max residual = 0.00135323578
smoothSolver:  Solving for Temperature, Initial residual = 1.124455249e-05, Final residual = 4.387608918e-10, No Iterations 6
Correcting epsilon1, mean residual = 6.784320052e-08, max residual = 0.0005548318137
smoothSolver:  Solving for Temperature, Initial residual = 4.607242449e-06, Final residual = 9.496234534e-10, No Iterations 5
Correcting epsilon1, mean residual = 2.77946984e-08, max residual = 0.0002274875737
smoothSolver:  Solving for Temperature, Initial residual = 1.888348319e-06, Final residual = 3.892259197e-10, No Iterations 5
Correcting epsilon1, mean residual = 1.138617757e-08, max residual = 9.326574111e-05
smoothSolver:  Solving for Temperature, Initial residual = 7.735735739e-07, Final residual = 8.494079546e-10, No Iterations 4
Correcting epsilon1, mean residual = 4.665572992e-09, max residual = 3.824534322e-05
smoothSolver:  Solving for Temperature, Initial residual = 3.176686027e-07, Final residual = 3.489129018e-10, No Iterations 4
Correcting epsilon1, mean residual = 1.910566781e-09, max residual = 1.567513977e-05
smoothSolver:  Solving for Temperature, Initial residual = 1.300875396e-07, Final residual = 7.692966368e-10, No Iterations 3
Correcting epsilon1, mean residual = 7.8382391e-10, max residual = 6.434812398e-06
smoothSolver:  Solving for Temperature, Initial residual = 5.399554046e-08, Final residual = 3.19695263e-10, No Iterations 3
Correcting epsilon1, mean residual = 3.201334252e-10, max residual = 2.631349241e-06
smoothSolver:  Solving for Temperature, Initial residual = 2.205863885e-08, Final residual = 7.12840235e-10, No Iterations 2
Correcting epsilon1, mean residual = 1.326407497e-10, max residual = 1.090195348e-06
smoothSolver:  Solving for Temperature, Initial residual = 9.719928823e-09, Final residual = 3.149941865e-10, No Iterations 2
Correcting epsilon1, mean residual = 5.309707257e-11, max residual = 4.377138456e-07
GAMG:  Solving for p_rgh, Initial residual = 0.01088801685, Final residual = 9.98722214e-10, No Iterations 18
time step continuity errors : sum local = 8.14067388e-12, global = 1.275614447e-15, cumulative = 7.928371565e-16
GAMG:  Solving for p_rgh, Initial residual = 0.0009717479071, Final residual = 4.40935839e-10, No Iterations 17
time step continuity errors : sum local = 4.512244024e-12, global = 1.120799187e-16, cumulative = 9.049170752e-16
GAMGPCG:  Solving for p_rgh, Initial residual = 6.095511286e-05, Final residual = 1.53825225e-11, No Iterations 3
time step continuity errors : sum local = 2.000415682e-13, global = -7.440516417e-18, cumulative = 8.974765588e-16
ExecutionTime = 8.13 s  ClockTime = 9 s

Courant Number mean: 0.0004617141407 max: 0.7085212831
Interface Courant Number mean: 0 max: 0
deltaT = 4.62962963e-06
Time = 0.0002212962963

smoothSolver:  Solving for alpha.phase1, Initial residual = 1.617767785e-17, Final residual = 1.617767785e-17, No Iterations 0
Phase-1 volume fraction = 0.625  Min(alpha.phase1) = 0  Max(alpha.phase1) = 1
MULES: Correcting alpha.phase1
MULES: Correcting alpha.phase1
MULES: Correcting alpha.phase1
Phase-1 volume fraction = 0.625  Min(alpha.phase1) = 0  Max(alpha.phase1) = 1
smoothSolver:  Solving for alpha.phase1, Initial residual = 1.617767785e-17, Final residual = 1.617767785e-17, No Iterations 0
Phase-1 volume fraction = 0.625  Min(alpha.phase1) = 0  Max(alpha.phase1) = 1
MULES: Correcting alpha.phase1
MULES: Correcting alpha.phase1
MULES: Correcting alpha.phase1
Phase-1 volume fraction = 0.625  Min(alpha.phase1) = 0  Max(alpha.phase1) = 1
smoothSolver:  Solving for alpha.phase1, Initial residual = 1.617767785e-17, Final residual = 1.617767785e-17, No Iterations 0
Phase-1 volume fraction = 0.625  Min(alpha.phase1) = 0  Max(alpha.phase1) = 1
MULES: Correcting alpha.phase1
MULES: Correcting alpha.phase1
MULES: Correcting alpha.phase1
Phase-1 volume fraction = 0.625  Min(alpha.phase1) = 0  Max(alpha.phase1) = 1
iterator_distance 	1.061032943e-05
Beam: 0
Beam: 1
Beam: 2
Beam: 3
Beam: 4
Beam: 5
Beam: 6
Beam: 7
Beam: 8
Beam: 9
Beam: 10
Beam: 11
Beam: 12
Beam: 13
Beam: 14
Beam: 15
Beam: 16
Beam: 17
Beam: 18
Beam: 19
Beam: 20
Beam: 21
smoothSolver:  Solving for Uy, Initial residual = 1.481803893e-10, Final residual = 1.481803893e-10, No Iterations 0
smoothSolver:  Solving for Uz, Initial residual = 2.675186851e-11, Final residual = 2.675186851e-11, No Iterations 0
smoothSolver:  Solving for Temperature, Initial residual = 0.004469113103, Final residual = 5.895627323e-10, No Iterations 5
Correcting epsilon1, mean residual = 6.319350756e-06, max residual = 0.05231052376
smoothSolver:  Solving for Temperature, Initial residual = 0.0004220095386, Final residual = 5.003633527e-11, No Iterations 5
Correcting epsilon1, mean residual = 1.058034022e-06, max residual = 0.008659472776
smoothSolver:  Solving for Temperature, Initial residual = 7.076423858e-05, Final residual = 1.925363404e-10, No Iterations 4
Correcting epsilon1, mean residual = 1.771752665e-07, max residual = 0.001433491198
smoothSolver:  Solving for Temperature, Initial residual = 1.18531965e-05, Final residual = 7.703172164e-10, No Iterations 3
Correcting epsilon1, mean residual = 2.967800171e-08, max residual = 0.0002373251044
smoothSolver:  Solving for Temperature, Initial residual = 1.986310397e-06, Final residual = 1.294453056e-10, No Iterations 3
Correcting epsilon1, mean residual = 4.967565685e-09, max residual = 3.926042719e-05
smoothSolver:  Solving for Temperature, Initial residual = 3.324756693e-07, Final residual = 5.345679721e-10, No Iterations 2
Correcting epsilon1, mean residual = 8.354897114e-10, max residual = 6.52189604e-06
smoothSolver:  Solving for Temperature, Initial residual = 5.643160048e-08, Final residual = 9.096833421e-11, No Iterations 2
Correcting epsilon1, mean residual = 1.36683296e-10, max residual = 1.056345517e-06
smoothSolver:  Solving for Temperature, Initial residual = 9.235534576e-09, Final residual = 3.737019545e-10, No Iterations 1
Correcting epsilon1, mean residual = 2.56521328e-11, max residual = 1.951839277e-07
GAMG:  Solving for p_rgh, Initial residual = 0.02693101316, Final residual = 6.34002274e-10, No Iterations 19
time step continuity errors : sum local = 7.447625426e-13, global = 5.10847213e-17, cumulative = 9.485612801e-16
GAMG:  Solving for p_rgh, Initial residual = 0.001242835234, Final residual = 7.369034805e-10, No Iterations 16
time step continuity errors : sum local = 1.23737142e-12, global = 4.17163004e-17, cumulative = 9.902775805e-16
GAMGPCG:  Solving for p_rgh, Initial residual = 3.713682101e-05, Final residual = 5.418597694e-10, No Iterations 2
time step continuity errors : sum local = 1.02416708e-12, global = -5.466073929e-16, cumulative = 4.436701876e-16
ExecutionTime = 8.68 s  ClockTime = 9 s

Courant Number mean: 0.0002057759754 max: 0.3127536982
Interface Courant Number mean: 0 max: 0
deltaT = 2.914951989e-06
Time = 0.0002242112483

smoothSolver:  Solving for alpha.phase1, Initial residual = 1.016839377e-16, Final residual = 1.016839377e-16, No Iterations 0
Phase-1 volume fraction = 0.625  Min(alpha.phase1) = 0  Max(alpha.phase1) = 1
MULES: Correcting alpha.phase1
MULES: Correcting alpha.phase1
MULES: Correcting alpha.phase1
Phase-1 volume fraction = 0.625  Min(alpha.phase1) = 0  Max(alpha.phase1) = 1
smoothSolver:  Solving for alpha.phase1, Initial residual = 1.016839377e-16, Final residual = 1.016839377e-16, No Iterations 0
Phase-1 volume fraction = 0.625  Min(alpha.phase1) = 0  Max(alpha.phase1) = 1
MULES: Correcting alpha.phase1
MULES: Correcting alpha.phase1
MULES: Correcting alpha.phase1
Phase-1 volume fraction = 0.625  Min(alpha.phase1) = 0  Max(alpha.phase1) = 1
smoothSolver:  Solving for alpha.phase1, Initial residual = 1.016839377e-16, Final residual = 1.016839377e-16, No Iterations 0
Phase-1 volume fraction = 0.625  Min(alpha.phase1) = 0  Max(alpha.phase1) = 1
MULES: Correcting alpha.phase1
MULES: Correcting alpha.phase1
MULES: Correcting alpha.phase1
Phase-1 volume fraction = 0.625  Min(alpha.phase1) = 0  Max(alpha.phase1) = 1
iterator_distance 	1.061032943e-05
Beam: 0
Beam: 1
Beam: 2
Beam: 3
Beam: 4
Beam: 5
Beam: 6
Beam: 7
Beam: 8
Beam: 9
Beam: 10
Beam: 11
Beam: 12
Beam: 13
Beam: 14
Beam: 15
Beam: 16
Beam: 17
Beam: 18
Beam: 19
Beam: 20
Beam: 21
smoothSolver:  Solving for Uy, Initial residual = 1.330274836e-11, Final residual = 1.330274836e-11, No Iterations 0
smoothSolver:  Solving for Uz, Initial residual = 7.826189135e-12, Final residual = 7.826189135e-12, No Iterations 0
smoothSolver:  Solving for Temperature, Initial residual = 0.002763482365, Final residual = 7.740659488e-10, No Iterations 4
Correcting epsilon1, mean residual = 4.429489928e-06, max residual = 0.03675263584
smoothSolver:  Solving for Temperature, Initial residual = 0.0002924741079, Final residual = 8.724116492e-11, No Iterations 4
Correcting epsilon1, mean residual = 5.010064814e-07, max residual = 0.004088189904
smoothSolver:  Solving for Temperature, Initial residual = 3.311472831e-05, Final residual = 4.074064352e-10, No Iterations 3
Correcting epsilon1, mean residual = 5.66909843e-08, max residual = 0.0004547683241
smoothSolver:  Solving for Temperature, Initial residual = 3.747901619e-06, Final residual = 4.629432247e-11, No Iterations 3
Correcting epsilon1, mean residual = 6.414016323e-09, max residual = 5.056640557e-05
smoothSolver:  Solving for Temperature, Initial residual = 4.240432353e-07, Final residual = 2.247182951e-10, No Iterations 2
Correcting epsilon1, mean residual = 7.280072444e-10, max residual = 5.636931978e-06
smoothSolver:  Solving for Temperature, Initial residual = 4.834952676e-08, Final residual = 2.570822476e-11, No Iterations 2
Correcting epsilon1, mean residual = 8.060836945e-11, max residual = 6.140119652e-07
GAMG:  Solving for p_rgh, Initial residual = 0.00896947717, Final residual = 5.03042078e-10, No Iterations 19
time step continuity errors : sum local = 3.906535853e-13, global = 3.320338751e-17, cumulative = 4.768735751e-16
GAMG:  Solving for p_rgh, Initial residual = 0.0007718870749, Final residual = 7.896670741e-10, No Iterations 15
time step continuity errors : sum local = 6.712496615e-13, global = -2.826901598e-18, cumulative = 4.740466736e-16
GAMGPCG:  Solving for p_rgh, Initial residual = 2.099293421e-05, Final residual = 2.852101617e-10, No Iterations 2
time step continuity errors : sum local = 2.504480575e-13, global = -9.67926207e-16, cumulative = -4.938795334e-16
ExecutionTime = 9.22 s  ClockTime = 10 s

Courant Number mean: 0.0001455489009 max: 0.2238729312
Interface Courant Number mean: 0 max: 0
deltaT = 2.526291724e-06
Time = 0.00022673754

smoothSolver:  Solving for alpha.phase1, Initial residual = 1.488178775e-17, Final residual = 1.488178775e-17, No Iterations 0
Phase-1 volume fraction = 0.625  Min(alpha.phase1) = 0  Max(alpha.phase1) = 1
MULES: Correcting alpha.phase1
MULES: Correcting alpha.phase1
MULES: Correcting alpha.phase1
Phase-1 volume fraction = 0.625  Min(alpha.phase1) = 0  Max(alpha.phase1) = 1
smoothSolver:  Solving for alpha.phase1, Initial residual = 1.488178775e-17, Final residual = 1.488178775e-17, No Iterations 0
Phase-1 volume fraction = 0.625  Min(alpha.phase1) = 0  Max(alpha.phase1) = 1
MULES: Correcting alpha.phase1
MULES: Correcting alpha.phase1
MULES: Correcting alpha.phase1
Phase-1 volume fraction = 0.625  Min(alpha.phase1) = 0  Max(alpha.phase1) = 1
smoothSolver:  Solving for alpha.phase1, Initial residual = 1.488178775e-17, Final residual = 1.488178775e-17, No Iterations 0
Phase-1 volume fraction = 0.625  Min(alpha.phase1) = 0  Max(alpha.phase1) = 1
MULES: Correcting alpha.phase1
MULES: Correcting alpha.phase1
MULES: Correcting alpha.phase1
Phase-1 volume fraction = 0.625  Min(alpha.phase1) = 0  Max(alpha.phase1) = 1
iterator_distance 	1.061032943e-05
Beam: 0
Beam: 1
Beam: 2
Beam: 3
Beam: 4
Beam: 5
Beam: 6
Beam: 7
Beam: 8
Beam: 9
Beam: 10
Beam: 11
Beam: 12
Beam: 13
Beam: 14
Beam: 15
Beam: 16
Beam: 17
Beam: 18
Beam: 19
Beam: 20
Beam: 21
smoothSolver:  Solving for Uy, Initial residual = 1.752227164e-12, Final residual = 1.752227164e-12, No Iterations 0
smoothSolver:  Solving for Uz, Initial residual = 6.005114338e-12, Final residual = 6.005114338e-12, No Iterations 0
smoothSolver:  Solving for Temperature, Initial residual = 0.002365916856, Final residual = 3.493743726e-10, No Iterations 4
Correcting epsilon1, mean residual = 4.031122304e-06, max residual = 0.03351911313
smoothSolver:  Solving for Temperature, Initial residual = 0.0002633551112, Final residual = 3.779781484e-11, No Iterations 4
Correcting epsilon1, mean residual = 3.971987831e-07, max residual = 0.003236956964
smoothSolver:  Solving for Temperature, Initial residual = 2.597276154e-05, Final residual = 1.835282463e-10, No Iterations 3
Correcting epsilon1, mean residual = 3.915966709e-08, max residual = 0.0003126029155
smoothSolver:  Solving for Temperature, Initial residual = 2.561053101e-06, Final residual = 9.323312061e-10, No Iterations 2
Correcting epsilon1, mean residual = 3.870369725e-09, max residual = 3.024257102e-05
smoothSolver:  Solving for Temperature, Initial residual = 2.540396846e-07, Final residual = 9.285142475e-11, No Iterations 2
Correcting epsilon1, mean residual = 3.73667619e-10, max residual = 2.861857659e-06
smoothSolver:  Solving for Temperature, Initial residual = 2.452930105e-08, Final residual = 4.726429871e-10, No Iterations 1
Correcting epsilon1, mean residual = 4.128406707e-11, max residual = 3.082853587e-07
GAMG:  Solving for p_rgh, Initial residual = 0.002813316732, Final residual = 5.94175333e-10, No Iterations 17
time step continuity errors : sum local = 3.95792384e-13, global = 2.407522058e-17, cumulative = -4.698043128e-16
GAMG:  Solving for p_rgh, Initial residual = 0.0005836781542, Final residual = 5.423796429e-10, No Iterations 15
time step continuity errors : sum local = 3.76586181e-13, global = -1.517149547e-17, cumulative = -4.849758083e-16
GAMGPCG:  Solving for p_rgh, Initial residual = 1.358293312e-05, Final residual = 2.130187665e-10, No Iterations 2
time step continuity errors : sum local = 1.506305118e-13, global = 1.513486443e-16, cumulative = -3.33627164e-16
ExecutionTime = 9.75 s  ClockTime = 10 s

Courant Number mean: 0.0001342320155 max: 0.2092821585
Interface Courant Number mean: 0 max: 0
deltaT = 2.363305161e-06
Time = 0.0002291008452

smoothSolver:  Solving for alpha.phase1, Initial residual = 1.641914431e-17, Final residual = 1.641914431e-17, No Iterations 0
Phase-1 volume fraction = 0.625  Min(alpha.phase1) = 0  Max(alpha.phase1) = 1
MULES: Correcting alpha.phase1
MULES: Correcting alpha.phase1
MULES: Correcting alpha.phase1
Phase-1 volume fraction = 0.625  Min(alpha.phase1) = 0  Max(alpha.phase1) = 1
smoothSolver:  Solving for alpha.phase1, Initial residual = 1.641914431e-17, Final residual = 1.641914431e-17, No Iterations 0
Phase-1 volume fraction = 0.625  Min(alpha.phase1) = 0  Max(alpha.phase1) = 1
MULES: Correcting alpha.phase1
MULES: Correcting alpha.phase1
MULES: Correcting alpha.phase1
Phase-1 volume fraction = 0.625  Min(alpha.phase1) = 0  Max(alpha.phase1) = 1
smoothSolver:  Solving for alpha.phase1, Initial residual = 1.641914431e-17, Final residual = 1.641914431e-17, No Iterations 0
Phase-1 volume fraction = 0.625  Min(alpha.phase1) = 0  Max(alpha.phase1) = 1
MULES: Correcting alpha.phase1
MULES: Correcting alpha.phase1
MULES: Correcting alpha.phase1
Phase-1 volume fraction = 0.625  Min(alpha.phase1) = 0  Max(alpha.phase1) = 1
iterator_distance 	1.061032943e-05
Beam: 0
Beam: 1
Beam: 2
Beam: 3
Beam: 4
Beam: 5
Beam: 6
Beam: 7
Beam: 8
Beam: 9
Beam: 10
Beam: 11
Beam: 12
Beam: 13
Beam: 14
Beam: 15
Beam: 16
Beam: 17
Beam: 18
Beam: 19
Beam: 20
Beam: 21
smoothSolver:  Solving for Uy, Initial residual = 7.719681775e-13, Final residual = 7.719681775e-13, No Iterations 0
smoothSolver:  Solving for Uz, Initial residual = 6.460138865e-12, Final residual = 6.460138865e-12, No Iterations 0
smoothSolver:  Solving for Temperature, Initial residual = 0.002189711644, Final residual = 2.397459522e-10, No Iterations 4
Correcting epsilon1, mean residual = 3.907480721e-06, max residual = 0.03255536089
smoothSolver:  Solving for Temperature, Initial residual = 0.0002527388028, Final residual = 2.46519461e-11, No Iterations 4
Correcting epsilon1, mean residual = 3.572109287e-07, max residual = 0.002907940492
smoothSolver:  Solving for Temperature, Initial residual = 2.312465128e-05, Final residual = 1.215221259e-10, No Iterations 3
Correcting epsilon1, mean residual = 3.267960355e-08, max residual = 0.0002597514767
smoothSolver:  Solving for Temperature, Initial residual = 2.115855704e-06, Final residual = 6.301956162e-10, No Iterations 2
Correcting epsilon1, mean residual = 2.997141693e-09, max residual = 2.323917794e-05
smoothSolver:  Solving for Temperature, Initial residual = 1.946717489e-07, Final residual = 5.826129927e-11, No Iterations 2
Correcting epsilon1, mean residual = 2.687598992e-10, max residual = 2.035259762e-06
smoothSolver:  Solving for Temperature, Initial residual = 1.745837843e-08, Final residual = 3.040129929e-10, No Iterations 1
Correcting epsilon1, mean residual = 2.754464566e-11, max residual = 2.025810771e-07
GAMG:  Solving for p_rgh, Initial residual = 0.001812670845, Final residual = 6.794987624e-10, No Iterations 16
time step continuity errors : sum local = 4.226748956e-13, global = 2.627198944e-17, cumulative = -3.073551745e-16
GAMG:  Solving for p_rgh, Initial residual = 0.000484949444, Final residual = 9.875561882e-10, No Iterations 14
time step continuity errors : sum local = 6.328766897e-13, global = -3.237035231e-17, cumulative = -3.397255268e-16
GAMGPCG:  Solving for p_rgh, Initial residual = 9.759603788e-06, Final residual = 1.992227791e-10, No Iterations 2
time step continuity errors : sum local = 1.295104427e-13, global = 3.764346483e-16, cumulative = 3.670912147e-17
ExecutionTime = 10.3 s  ClockTime = 11 s

Courant Number mean: 0.0001313342201 max: 0.2074849512
Interface Courant Number mean: 0 max: 0
deltaT = 2.215598588e-06
Time = 0.0002313164438

smoothSolver:  Solving for alpha.phase1, Initial residual = 3.2466699e-17, Final residual = 3.2466699e-17, No Iterations 0
Phase-1 volume fraction = 0.625  Min(alpha.phase1) = 0  Max(alpha.phase1) = 1
MULES: Correcting alpha.phase1
MULES: Correcting alpha.phase1
MULES: Correcting alpha.phase1
Phase-1 volume fraction = 0.625  Min(alpha.phase1) = 0  Max(alpha.phase1) = 1
smoothSolver:  Solving for alpha.phase1, Initial residual = 3.2466699e-17, Final residual = 3.2466699e-17, No Iterations 0
Phase-1 volume fraction = 0.625  Min(alpha.phase1) = 0  Max(alpha.phase1) = 1
MULES: Correcting alpha.phase1
MULES: Correcting alpha.phase1
MULES: Correcting alpha.phase1
Phase-1 volume fraction = 0.625  Min(alpha.phase1) = 0  Max(alpha.phase1) = 1
smoothSolver:  Solving for alpha.phase1, Initial residual = 3.2466699e-17, Final residual = 3.2466699e-17, No Iterations 0
Phase-1 volume fraction = 0.625  Min(alpha.phase1) = 0  Max(alpha.phase1) = 1
MULES: Correcting alpha.phase1
MULES: Correcting alpha.phase1
MULES: Correcting alpha.phase1
Phase-1 volume fraction = 0.625  Min(alpha.phase1) = 0  Max(alpha.phase1) = 1
iterator_distance 	1.061032943e-05
Beam: 0
Beam: 1
Beam: 2
Beam: 3
Beam: 4
Beam: 5
Beam: 6
Beam: 7
Beam: 8
Beam: 9
Beam: 10
Beam: 11
Beam: 12
Beam: 13
Beam: 14
Beam: 15
Beam: 16
Beam: 17
Beam: 18
Beam: 19
Beam: 20
Beam: 21
smoothSolver:  Solving for Uy, Initial residual = 9.176873962e-13, Final residual = 9.176873962e-13, No Iterations 0
smoothSolver:  Solving for Uz, Initial residual = 2.133608946e-11, Final residual = 2.133608946e-11, No Iterations 0
smoothSolver:  Solving for Temperature, Initial residual = 0.002032635156, Final residual = 1.67005462e-10, No Iterations 4
Correcting epsilon1, mean residual = 3.779192218e-06, max residual = 0.03154165471
smoothSolver:  Solving for Temperature, Initial residual = 0.0002421875788, Final residual = 9.475615696e-10, No Iterations 3
Correcting epsilon1, mean residual = 3.210690876e-07, max residual = 0.002610133575
smoothSolver:  Solving for Temperature, Initial residual = 2.059337981e-05, Final residual = 8.11485618e-11, No Iterations 3
Correcting epsilon1, mean residual = 2.729382198e-08, max residual = 0.0002159359812
smoothSolver:  Solving for Temperature, Initial residual = 1.750749235e-06, Final residual = 4.289974084e-10, No Iterations 2
Correcting epsilon1, mean residual = 2.326809302e-09, max residual = 1.789457348e-05
smoothSolver:  Solving for Temperature, Initial residual = 1.496750417e-07, Final residual = 3.688539672e-11, No Iterations 2
Correcting epsilon1, mean residual = 1.941296903e-10, max residual = 1.452702787e-06
smoothSolver:  Solving for Temperature, Initial residual = 1.248874332e-08, Final residual = 1.97105968e-10, No Iterations 1
Correcting epsilon1, mean residual = 1.848795687e-11, max residual = 1.338119469e-07
GAMG:  Solving for p_rgh, Initial residual = 0.02576716025, Final residual = 9.149592236e-10, No Iterations 21
time step continuity errors : sum local = 5.376659678e-13, global = 3.710571033e-18, cumulative = 4.04196925e-17
GAMG:  Solving for p_rgh, Initial residual = 0.003787702587, Final residual = 8.648209363e-10, No Iterations 18
time step continuity errors : sum local = 4.204315185e-13, global = -1.12792961e-17, cumulative = 2.91403964e-17
[...]
smoothSolver:  Solving for Temperature, Initial residual = 7.304276887e-07, Final residual = 2.596810025e-10, No Iterations 1
Correcting epsilon1, mean residual = 1.800233463e-09, max residual = 1.291421018e-05
smoothSolver:  Solving for Temperature, Initial residual = 3.173600742e-08, Final residual = 1.11161431e-11, No Iterations 1
Correcting epsilon1, mean residual = 7.948435898e-11, max residual = 6.255602865e-07
GAMG:  Solving for p_rgh, Initial residual = 0.0008516009353, Final residual = 7.236161045e-10, No Iterations 14
time step continuity errors : sum local = 1.439928384e-12, global = -2.203226956e-16, cumulative = 1.989301481e-13
GAMG:  Solving for p_rgh, Initial residual = 0.0001426183229, Final residual = 8.258987561e-10, No Iterations 13
time step continuity errors : sum local = 1.650152131e-12, global = -1.088063135e-18, cumulative = 1.989290601e-13
GAMGPCG:  Solving for p_rgh, Initial residual = 1.573768288e-05, Final residual = 2.813164905e-11, No Iterations 3
time step continuity errors : sum local = 5.622032404e-14, global = -3.677925048e-18, cumulative = 1.989253822e-13
ExecutionTime = 347.72 s  ClockTime = 350 s

Courant Number mean: 0.002891235407 max: 0.1954036548
Interface Courant Number mean: 2.776252804e-05 max: 0.1156188768
deltaT = 6.852806729e-07
Time = 0.000797944158

smoothSolver:  Solving for alpha.phase1, Initial residual = 1.240849098e-06, Final residual = 5.930750378e-11, No Iterations 1
Phase-1 volume fraction = 0.6250000057  Min(alpha.phase1) = -5.421725484e-14  Max(alpha.phase1) = 1
MULES: Correcting alpha.phase1
MULES: Correcting alpha.phase1
MULES: Correcting alpha.phase1
Phase-1 volume fraction = 0.6250000057  Min(alpha.phase1) = -1.017167629e-10  Max(alpha.phase1) = 1
smoothSolver:  Solving for alpha.phase1, Initial residual = 1.241019092e-06, Final residual = 5.906038998e-11, No Iterations 1
Phase-1 volume fraction = 0.6250000057  Min(alpha.phase1) = -5.348483333e-14  Max(alpha.phase1) = 1
MULES: Correcting alpha.phase1
MULES: Correcting alpha.phase1
MULES: Correcting alpha.phase1
Phase-1 volume fraction = 0.6250000057  Min(alpha.phase1) = -1.016263894e-10  Max(alpha.phase1) = 1
smoothSolver:  Solving for alpha.phase1, Initial residual = 1.241199544e-06, Final residual = 5.881887203e-11, No Iterations 1
Phase-1 volume fraction = 0.6250000058  Min(alpha.phase1) = -5.253934311e-14  Max(alpha.phase1) = 1
MULES: Correcting alpha.phase1
MULES: Correcting alpha.phase1
MULES: Correcting alpha.phase1
Phase-1 volume fraction = 0.6250000058  Min(alpha.phase1) = -1.01504787e-10  Max(alpha.phase1) = 1
iterator_distance 	1.061032943e-05
Beam: 0
Beam: 1
Beam: 2
Beam: 3
Beam: 4
Beam: 5
Beam: 6
Beam: 7
Beam: 8
Beam: 9
Beam: 10
Beam: 11
Beam: 12
Beam: 13
Beam: 14
Beam: 15
Beam: 16
Beam: 17
Beam: 18
Beam: 19
Beam: 20
Beam: 21
smoothSolver:  Solving for Uy, Initial residual = 7.044760799e-13, Final residual = 7.044760799e-13, No Iterations 0
smoothSolver:  Solving for Uz, Initial residual = 9.677882037e-13, Final residual = 9.677882037e-13, No Iterations 0
smoothSolver:  Solving for Temperature, Initial residual = 0.0001872751943, Final residual = 2.606958602e-11, No Iterations 3
Correcting epsilon1, mean residual = 1.026330319e-06, max residual = 0.005045559397
smoothSolver:  Solving for Temperature, Initial residual = 1.793408989e-05, Final residual = 3.307508073e-12, No Iterations 2
Correcting epsilon1, mean residual = 4.193045644e-08, max residual = 0.0002553391031
smoothSolver:  Solving for Temperature, Initial residual = 7.327228158e-07, Final residual = 2.593667643e-10, No Iterations 1
Correcting epsilon1, mean residual = 1.803027113e-09, max residual = 1.295368183e-05
smoothSolver:  Solving for Temperature, Initial residual = 3.176666072e-08, Final residual = 1.108221425e-11, No Iterations 1
Correcting epsilon1, mean residual = 7.971498942e-11, max residual = 6.252301226e-07
GAMG:  Solving for p_rgh, Initial residual = 0.0008164170356, Final residual = 7.824638287e-10, No Iterations 14
time step continuity errors : sum local = 1.56398819e-12, global = -5.053798483e-17, cumulative = 1.988748442e-13
GAMG:  Solving for p_rgh, Initial residual = 0.0001412331487, Final residual = 7.962518764e-10, No Iterations 13
time step continuity errors : sum local = 1.597678228e-12, global = -1.296885399e-17, cumulative = 1.988618753e-13
GAMGPCG:  Solving for p_rgh, Initial residual = 1.56683205e-05, Final residual = 2.794853309e-11, No Iterations 3
time step continuity errors : sum local = 5.609207786e-14, global = -3.389006202e-18, cumulative = 1.988584863e-13
ExecutionTime = 348.12 s  ClockTime = 351 s

Courant Number mean: 0.002897326391 max: 0.1955309889
Interface Courant Number mean: 2.784007909e-05 max: 0.1159278333
deltaT = 6.852806729e-07
Time = 0.0007986294387

smoothSolver:  Solving for alpha.phase1, Initial residual = 1.243534331e-06, Final residual = 5.970138481e-11, No Iterations 1
Phase-1 volume fraction = 0.6250000058  Min(alpha.phase1) = -5.143760375e-14  Max(alpha.phase1) = 1
MULES: Correcting alpha.phase1
MULES: Correcting alpha.phase1
MULES: Correcting alpha.phase1
Phase-1 volume fraction = 0.6250000058  Min(alpha.phase1) = -9.656314788e-11  Max(alpha.phase1) = 1
smoothSolver:  Solving for alpha.phase1, Initial residual = 1.243683132e-06, Final residual = 5.945893957e-11, No Iterations 1
Phase-1 volume fraction = 0.6250000058  Min(alpha.phase1) = -5.033318115e-14  Max(alpha.phase1) = 1
MULES: Correcting alpha.phase1
MULES: Correcting alpha.phase1
MULES: Correcting alpha.phase1
Phase-1 volume fraction = 0.6250000058  Min(alpha.phase1) = -9.631297703e-11  Max(alpha.phase1) = 1
smoothSolver:  Solving for alpha.phase1, Initial residual = 1.243843251e-06, Final residual = 5.922389263e-11, No Iterations 1
Phase-1 volume fraction = 0.6250000058  Min(alpha.phase1) = -4.918695222e-14  Max(alpha.phase1) = 1
MULES: Correcting alpha.phase1
MULES: Correcting alpha.phase1
MULES: Correcting alpha.phase1
Phase-1 volume fraction = 0.6250000058  Min(alpha.phase1) = -9.603157854e-11  Max(alpha.phase1) = 1
iterator_distance 	1.061032943e-05
Beam: 0
Beam: 1
Beam: 2
Beam: 3
Beam: 4
Beam: 5
Beam: 6
Beam: 7
Beam: 8
Beam: 9
Beam: 10
Beam: 11
Beam: 12
Beam: 13
Beam: 14
Beam: 15
Beam: 16
Beam: 17
Beam: 18
Beam: 19
Beam: 20
Beam: 21
smoothSolver:  Solving for Uy, Initial residual = 6.955432724e-13, Final residual = 6.955432724e-13, No Iterations 0
smoothSolver:  Solving for Uz, Initial residual = 9.519520485e-13, Final residual = 9.519520485e-13, No Iterations 0
smoothSolver:  Solving for Temperature, Initial residual = 0.0001872023767, Final residual = 2.610471175e-11, No Iterations 3
Correcting epsilon1, mean residual = 1.032205869e-06, max residual = 0.005095507394
smoothSolver:  Solving for Temperature, Initial residual = 1.802657471e-05, Final residual = 3.304761389e-12, No Iterations 2
Correcting epsilon1, mean residual = 4.208022728e-08, max residual = 0.0002569541581
smoothSolver:  Solving for Temperature, Initial residual = 7.349249305e-07, Final residual = 2.590156426e-10, No Iterations 1
Correcting epsilon1, mean residual = 1.805481949e-09, max residual = 1.298941099e-05
smoothSolver:  Solving for Temperature, Initial residual = 3.17913981e-08, Final residual = 1.104629422e-11, No Iterations 1
Correcting epsilon1, mean residual = 7.991923012e-11, max residual = 6.246877405e-07
GAMG:  Solving for p_rgh, Initial residual = 0.0007964380148, Final residual = 9.778969579e-10, No Iterations 14
time step continuity errors : sum local = 1.962940878e-12, global = -1.045497645e-16, cumulative = 1.987539365e-13
GAMG:  Solving for p_rgh, Initial residual = 0.0001418987564, Final residual = 7.78665364e-10, No Iterations 13
time step continuity errors : sum local = 1.569183849e-12, global = -2.304766466e-17, cumulative = 1.987308889e-13
GAMGPCG:  Solving for p_rgh, Initial residual = 1.581692515e-05, Final residual = 2.77768304e-11, No Iterations 3
time step continuity errors : sum local = 5.598983814e-14, global = -2.964947793e-18, cumulative = 1.987279239e-13
ExecutionTime = 348.53 s  ClockTime = 351 s

Courant Number mean: 0.002903475936 max: 0.1956580931
Interface Courant Number mean: 2.792098995e-05 max: 0.1162514025
deltaT = 6.852806729e-07
Time = 0.0007993147193

smoothSolver:  Solving for alpha.phase1, Initial residual = 1.246320156e-06, Final residual = 6.018837564e-11, No Iterations 1
Phase-1 volume fraction = 0.6250000058  Min(alpha.phase1) = -4.806500588e-14  Max(alpha.phase1) = 1
MULES: Correcting alpha.phase1
MULES: Correcting alpha.phase1
MULES: Correcting alpha.phase1
Phase-1 volume fraction = 0.6250000058  Min(alpha.phase1) = -9.077802472e-11  Max(alpha.phase1) = 1
smoothSolver:  Solving for alpha.phase1, Initial residual = 1.246447351e-06, Final residual = 5.995599014e-11, No Iterations 1
Phase-1 volume fraction = 0.6250000058  Min(alpha.phase1) = -4.696745696e-14  Max(alpha.phase1) = 1
MULES: Correcting alpha.phase1
MULES: Correcting alpha.phase1
MULES: Correcting alpha.phase1
Phase-1 volume fraction = 0.6250000058  Min(alpha.phase1) = -9.036214827e-11  Max(alpha.phase1) = 1
smoothSolver:  Solving for alpha.phase1, Initial residual = 1.246582596e-06, Final residual = 5.973278131e-11, No Iterations 1
Phase-1 volume fraction = 0.6250000058  Min(alpha.phase1) = -4.589376385e-14  Max(alpha.phase1) = 1
MULES: Correcting alpha.phase1
MULES: Correcting alpha.phase1
MULES: Correcting alpha.phase1
Phase-1 volume fraction = 0.6250000058  Min(alpha.phase1) = -8.991588689e-11  Max(alpha.phase1) = 1
iterator_distance 	1.061032943e-05
Beam: 0
Beam: 1
Beam: 2
Beam: 3
Beam: 4
Beam: 5
Beam: 6
Beam: 7
Beam: 8
Beam: 9
Beam: 10
Beam: 11
Beam: 12
Beam: 13
Beam: 14
Beam: 15
Beam: 16
Beam: 17
Beam: 18
Beam: 19
Beam: 20
Beam: 21
smoothSolver:  Solving for Uy, Initial residual = 6.897864419e-13, Final residual = 6.897864419e-13, No Iterations 0
smoothSolver:  Solving for Uz, Initial residual = 9.37564865e-13, Final residual = 9.37564865e-13, No Iterations 0
smoothSolver:  Solving for Temperature, Initial residual = 0.0001871297646, Final residual = 2.614127484e-11, No Iterations 3
Correcting epsilon1, mean residual = 1.038019184e-06, max residual = 0.005144871385
smoothSolver:  Solving for Temperature, Initial residual = 1.811791989e-05, Final residual = 3.301821642e-12, No Iterations 2
Correcting epsilon1, mean residual = 4.22247391e-08, max residual = 0.000258514545
smoothSolver:  Solving for Temperature, Initial residual = 7.37034836e-07, Final residual = 2.586284012e-10, No Iterations 1
Correcting epsilon1, mean residual = 1.807601203e-09, max residual = 1.302143121e-05
smoothSolver:  Solving for Temperature, Initial residual = 3.181030218e-08, Final residual = 1.100842287e-11, No Iterations 1
Correcting epsilon1, mean residual = 8.009751666e-11, max residual = 6.239369223e-07
GAMG:  Solving for p_rgh, Initial residual = 0.0009138996295, Final residual = 5.824297294e-10, No Iterations 15
time step continuity errors : sum local = 1.17425017e-12, global = -7.909945812e-17, cumulative = 1.986488245e-13
GAMG:  Solving for p_rgh, Initial residual = 0.0001456775383, Final residual = 7.840843663e-10, No Iterations 13
time step continuity errors : sum local = 1.587461537e-12, global = -3.562944699e-17, cumulative = 1.98613195e-13
GAMGPCG:  Solving for p_rgh, Initial residual = 1.591120689e-05, Final residual = 2.745894435e-11, No Iterations 3
time step continuity errors : sum local = 5.560657699e-14, global = -2.433706872e-18, cumulative = 1.986107613e-13
ExecutionTime = 348.94 s  ClockTime = 352 s

Courant Number mean: 0.002909624726 max: 0.1957847314
Interface Courant Number mean: 3.345669725e-05 max: 0.1165900437
deltaT = 6.852806729e-07
Time = 0.0008

smoothSolver:  Solving for alpha.phase1, Initial residual = 1.249204115e-06, Final residual = 6.07944105e-11, No Iterations 1
Phase-1 volume fraction = 0.6250000059  Min(alpha.phase1) = -4.484270024e-14  Max(alpha.phase1) = 1
MULES: Correcting alpha.phase1
MULES: Correcting alpha.phase1
MULES: Correcting alpha.phase1
Phase-1 volume fraction = 0.6250000059  Min(alpha.phase1) = -8.443266048e-11  Max(alpha.phase1) = 1
smoothSolver:  Solving for alpha.phase1, Initial residual = 1.249306279e-06, Final residual = 6.057721448e-11, No Iterations 1
Phase-1 volume fraction = 0.6250000059  Min(alpha.phase1) = -4.381441028e-14  Max(alpha.phase1) = 1
MULES: Correcting alpha.phase1
MULES: Correcting alpha.phase1
MULES: Correcting alpha.phase1
Phase-1 volume fraction = 0.6250000059  Min(alpha.phase1) = -8.384549984e-11  Max(alpha.phase1) = 1
smoothSolver:  Solving for alpha.phase1, Initial residual = 1.249422326e-06, Final residual = 6.037051807e-11, No Iterations 1
Phase-1 volume fraction = 0.6250000059  Min(alpha.phase1) = -4.280839865e-14  Max(alpha.phase1) = 1
MULES: Correcting alpha.phase1
MULES: Correcting alpha.phase1
MULES: Correcting alpha.phase1
Phase-1 volume fraction = 0.6250000059  Min(alpha.phase1) = -8.323644003e-11  Max(alpha.phase1) = 1
iterator_distance 	1.061032943e-05
Beam: 0
Beam: 1
Beam: 2
Beam: 3
Beam: 4
Beam: 5
Beam: 6
Beam: 7
Beam: 8
Beam: 9
Beam: 10
Beam: 11
Beam: 12
Beam: 13
Beam: 14
Beam: 15
Beam: 16
Beam: 17
Beam: 18
Beam: 19
Beam: 20
Beam: 21
smoothSolver:  Solving for Uy, Initial residual = 6.827754373e-13, Final residual = 6.827754373e-13, No Iterations 0
smoothSolver:  Solving for Uz, Initial residual = 9.234593853e-13, Final residual = 9.234593853e-13, No Iterations 0
smoothSolver:  Solving for Temperature, Initial residual = 0.000187057495, Final residual = 2.617905607e-11, No Iterations 3
Correcting epsilon1, mean residual = 1.04377018e-06, max residual = 0.005193648451
smoothSolver:  Solving for Temperature, Initial residual = 1.820804168e-05, Final residual = 3.298694125e-12, No Iterations 2
Correcting epsilon1, mean residual = 4.236401001e-08, max residual = 0.0002600203711
smoothSolver:  Solving for Temperature, Initial residual = 7.390495677e-07, Final residual = 2.582045746e-10, No Iterations 1
Correcting epsilon1, mean residual = 1.809388274e-09, max residual = 1.30497784e-05
smoothSolver:  Solving for Temperature, Initial residual = 3.182329412e-08, Final residual = 1.096862778e-11, No Iterations 1
Correcting epsilon1, mean residual = 8.02502938e-11, max residual = 6.229815789e-07
GAMG:  Solving for p_rgh, Initial residual = 0.0008937983214, Final residual = 6.909767149e-10, No Iterations 15
time step continuity errors : sum local = 1.399401503e-12, global = -2.463950976e-17, cumulative = 1.985861218e-13
GAMG:  Solving for p_rgh, Initial residual = 0.0001485987491, Final residual = 8.10421048e-10, No Iterations 13
time step continuity errors : sum local = 1.647683623e-12, global = -4.22064039e-17, cumulative = 1.985439154e-13
GAMGPCG:  Solving for p_rgh, Initial residual = 1.622882454e-05, Final residual = 2.728107242e-11, No Iterations 3
time step continuity errors : sum local = 5.547805052e-14, global = -1.662836057e-18, cumulative = 1.985422526e-13
ExecutionTime = 349.38 s  ClockTime = 352 s

Courant Number mean: 0.002915969167 max: 0.1959115512
Interface Courant Number mean: 3.354416893e-05 max: 0.1169433798
deltaT = 6.993006993e-07
Time = 0.0008006993007

smoothSolver:  Solving for alpha.phase1, Initial residual = 1.277859898e-06, Final residual = 6.535319341e-11, No Iterations 1
Phase-1 volume fraction = 0.6250000059  Min(alpha.phase1) = -4.180371942e-14  Max(alpha.phase1) = 1
MULES: Correcting alpha.phase1
MULES: Correcting alpha.phase1
MULES: Correcting alpha.phase1
Phase-1 volume fraction = 0.6250000059  Min(alpha.phase1) = -4.516892912e-11  Max(alpha.phase1) = 1
smoothSolver:  Solving for alpha.phase1, Initial residual = 1.278003967e-06, Final residual = 6.514114386e-11, No Iterations 1
Phase-1 volume fraction = 0.6250000059  Min(alpha.phase1) = -4.08210963e-14  Max(alpha.phase1) = 1
MULES: Correcting alpha.phase1
MULES: Correcting alpha.phase1
MULES: Correcting alpha.phase1
Phase-1 volume fraction = 0.6250000059  Min(alpha.phase1) = -4.520542418e-11  Max(alpha.phase1) = 1
smoothSolver:  Solving for alpha.phase1, Initial residual = 1.27816277e-06, Final residual = 6.511953762e-11, No Iterations 1
Phase-1 volume fraction = 0.6250000059  Min(alpha.phase1) = -3.986011976e-14  Max(alpha.phase1) = 1
MULES: Correcting alpha.phase1
MULES: Correcting alpha.phase1
MULES: Correcting alpha.phase1
Phase-1 volume fraction = 0.6250000059  Min(alpha.phase1) = -4.492763786e-11  Max(alpha.phase1) = 1
iterator_distance 	1.061032943e-05
Beam: 0
Beam: 1
Beam: 2
Beam: 3
Beam: 4
Beam: 5
Beam: 6
Beam: 7
Beam: 8
Beam: 9
Beam: 10
Beam: 11
Beam: 12
Beam: 13
Beam: 14
Beam: 15
Beam: 16
Beam: 17
Beam: 18
Beam: 19
Beam: 20
Beam: 21
smoothSolver:  Solving for Uy, Initial residual = 6.863851268e-13, Final residual = 6.863851268e-13, No Iterations 0
smoothSolver:  Solving for Uz, Initial residual = 9.09148389e-13, Final residual = 9.09148389e-13, No Iterations 0
smoothSolver:  Solving for Temperature, Initial residual = 0.0001908077614, Final residual = 2.845270538e-11, No Iterations 3
Correcting epsilon1, mean residual = 1.070409795e-06, max residual = 0.005345999848
smoothSolver:  Solving for Temperature, Initial residual = 1.866166455e-05, Final residual = 3.641028671e-12, No Iterations 2
Correcting epsilon1, mean residual = 4.401036891e-08, max residual = 0.0002708747981
smoothSolver:  Solving for Temperature, Initial residual = 7.673154911e-07, Final residual = 2.778314347e-10, No Iterations 1
Correcting epsilon1, mean residual = 1.9044171e-09, max residual = 1.375913192e-05
smoothSolver:  Solving for Temperature, Initial residual = 3.348101166e-08, Final residual = 1.196478094e-11, No Iterations 1
Correcting epsilon1, mean residual = 8.587686588e-11, max residual = 6.6451065e-07
GAMG:  Solving for p_rgh, Initial residual = 0.00093982934, Final residual = 7.052564579e-10, No Iterations 15
time step continuity errors : sum local = 1.490554882e-12, global = -1.752042939e-16, cumulative = 1.983670483e-13
GAMG:  Solving for p_rgh, Initial residual = 0.0001614130596, Final residual = 7.647987412e-10, No Iterations 13
time step continuity errors : sum local = 1.614506401e-12, global = -4.438636704e-17, cumulative = 1.983226619e-13
GAMGPCG:  Solving for p_rgh, Initial residual = 1.827212442e-05, Final residual = 2.606042765e-11, No Iterations 3
time step continuity errors : sum local = 5.502346652e-14, global = 4.93736846e-19, cumulative = 1.983231556e-13
ExecutionTime = 349.81 s  ClockTime = 353 s

Courant Number mean: 0.002982415815 max: 0.1999990273
Interface Courant Number mean: 3.429958208e-05 max: 0.1196303026
deltaT = 6.993006993e-07
Time = 0.0008013986014

smoothSolver:  Solving for alpha.phase1, Initial residual = 1.281265399e-06, Final residual = 6.668249791e-11, No Iterations 1
Phase-1 volume fraction = 0.6250000059  Min(alpha.phase1) = -3.892028221e-14  Max(alpha.phase1) = 1
MULES: Correcting alpha.phase1
MULES: Correcting alpha.phase1
MULES: Correcting alpha.phase1
Phase-1 volume fraction = 0.6250000059  Min(alpha.phase1) = -4.050679542e-11  Max(alpha.phase1) = 1
smoothSolver:  Solving for alpha.phase1, Initial residual = 1.281401193e-06, Final residual = 6.671955187e-11, No Iterations 1
Phase-1 volume fraction = 0.625000006  Min(alpha.phase1) = -3.800105965e-14  Max(alpha.phase1) = 1
MULES: Correcting alpha.phase1
MULES: Correcting alpha.phase1
MULES: Correcting alpha.phase1
Phase-1 volume fraction = 0.625000006  Min(alpha.phase1) = -4.024222732e-11  Max(alpha.phase1) = 1
smoothSolver:  Solving for alpha.phase1, Initial residual = 1.281553027e-06, Final residual = 6.676428419e-11, No Iterations 1
Phase-1 volume fraction = 0.625000006  Min(alpha.phase1) = -3.710202036e-14  Max(alpha.phase1) = 1
MULES: Correcting alpha.phase1
MULES: Correcting alpha.phase1
MULES: Correcting alpha.phase1
Phase-1 volume fraction = 0.625000006  Min(alpha.phase1) = -3.990438019e-11  Max(alpha.phase1) = 1
iterator_distance 	1.061032943e-05
Beam: 0
Beam: 1
Beam: 2
Beam: 3
Beam: 4
Beam: 5
Beam: 6
Beam: 7
Beam: 8
Beam: 9
Beam: 10
